B0


 35 39  0  0  0  0            999 V2000
   -0.5732   -8.7273   -5.0984 C   0  0  0  0  0  0
   -1.1967   -8.2666   -6.4028 C   0  0  0  0  0  0
   -0.5727   -8.5195   -7.6429 C   0  0  0  0  0  0
   -1.1513   -8.0738   -8.8585 C   0  0  0  0  0  0
   -2.3580   -7.3855   -8.8324 C   0  0  0  0  0  0
   -2.9693   -7.1386   -7.5756 C   0  0  0  0  0  0
   -2.3994   -7.5655   -6.3630 C   0  0  0  0  0  0
   -4.1253   -6.4463   -7.8047 N   0  0  0  0  0  0
   -4.3058   -6.2702   -9.0930 C   0  0  0  0  0  0
   -5.3141   -5.6958   -9.5267 O   0  0  0  0  0  0
   -3.1907   -6.8328   -9.9269 C   0  0  0  0  0  0
   -3.6368   -7.9456  -10.8648 C   0  0  0  0  0  0
   -3.1732   -8.2508  -12.1563 C   0  0  0  0  0  0
   -3.8652   -9.3181  -12.6240 N   0  0  0  0  0  0
   -4.7910   -9.7192  -11.6572 N   0  0  0  0  0  0
   -4.6605   -8.9067  -10.6014 C   0  0  0  0  0  0
   -2.5457   -5.7295  -10.7832 C   0  0  0  0  0  0
   -1.1550   -5.6882  -10.9772 C   0  0  0  0  0  0
   -0.5622   -4.7478  -11.8071 C   0  0  0  0  0  0
    0.8546   -4.7685  -12.0524 C   0  0  0  0  0  0
    1.5250   -3.6098  -11.8178 C   0  0  0  0  0  0
    2.8845   -3.5142  -12.0652 C   0  0  0  0  0  0
    3.5753   -4.6063  -12.5616 C   0  0  0  0  0  0
    5.0191   -4.5003  -12.8557 C   0  0  0  0  0  0
    5.7148   -3.7864  -12.1268 O   0  0  0  0  0  0
    5.4690   -5.1077  -13.8366 O   0  0  0  0  0  0
    2.9112   -5.8112  -12.8098 C   0  0  0  0  0  0
    1.5448   -5.9053  -12.5643 C   0  0  0  0  0  0
    0.8880   -7.2233  -12.8163 C   0  0  0  0  0  0
    0.1979   -7.3594  -13.8432 O   0  0  0  0  0  0
    1.1113   -8.1228  -11.9920 O   0  0  0  0  0  0
   -1.3077   -3.7943  -12.4234 C   0  0  0  0  0  0
   -2.6689   -3.7643  -12.2595 C   0  0  0  0  0  0
   -3.2978   -4.7334  -11.4622 C   0  0  0  0  0  0
   -4.6062   -4.6926  -11.4010 O   0  0  0  0  0  0
  1  2  1  0  0  0
  2  3  1  0  0  0
  2  7  1  0  0  0
  3  4  1  0  0  0
  4  5  1  0  0  0
  5  6  1  0  0  0
  5 11  1  0  0  0
  6  7  1  0  0  0
  6  8  1  0  0  0
  8  9  1  0  0  0
  9 10  1  0  0  0
  9 11  1  0  0  0
 11 12  1  0  0  0
 11 17  1  0  0  0
 12 13  1  0  0  0
 12 16  1  0  0  0
 13 14  1  0  0  0
 14 15  1  0  0  0
 15 16  1  0  0  0
 17 18  1  0  0  0
 17 34  1  0  0  0
 18 19  1  0  0  0
 19 20  1  0  0  0
 19 32  1  0  0  0
 20 21  1  0  0  0
 20 28  1  0  0  0
 21 22  1  0  0  0
 22 23  1  0  0  0
 23 24  1  0  0  0
 23 27  1  0  0  0
 24 25  1  0  0  0
 24 26  1  0  0  0
 27 28  1  0  0  0
 28 29  1  0  0  0
 29 30  1  0  0  0
 29 31  1  0  0  0
 32 33  1  0  0  0
 33 34  1  0  0  0
 34 35  1  0  0  0
M  END
> <entity_id>
2

> <pdb_auth_chain_name>
B0

$$$$
