B0


 35 39  0  0  0  0            999 V2000
  -14.7039   -3.8909   -8.9448 C   0  0  0  0  0  0
  -13.7818   -5.0518   -9.1699 C   0  0  0  0  0  0
  -12.4734   -5.0340   -8.6452 C   0  0  0  0  0  0
  -11.6213   -6.1306   -8.8498 C   0  0  0  0  0  0
  -12.0942   -7.2365   -9.5708 C   0  0  0  0  0  0
  -13.3911   -7.2629  -10.0773 C   0  0  0  0  0  0
  -14.2436   -6.1785   -9.8907 C   0  0  0  0  0  0
  -13.5937   -8.4892  -10.7069 N   0  0  0  0  0  0
  -12.5001   -9.2344  -10.6645 C   0  0  0  0  0  0
  -12.3561  -10.3844  -11.1408 O   0  0  0  0  0  0
  -11.4315   -8.5059   -9.8966 C   0  0  0  0  0  0
  -10.2067   -8.2356  -10.6945 C   0  0  0  0  0  0
  -10.0302   -8.3757  -12.1088 C   0  0  0  0  0  0
   -8.7706   -8.0373  -12.4239 N   0  0  0  0  0  0
   -8.1141   -7.6421  -11.2659 N   0  0  0  0  0  0
   -8.9639   -7.7452  -10.2353 C   0  0  0  0  0  0
  -11.1338   -9.2868   -8.6275 C   0  0  0  0  0  0
  -12.0272   -9.1862   -7.5710 C   0  0  0  0  0  0
  -11.7819   -9.8022   -6.3317 C   0  0  0  0  0  0
  -12.7548   -9.6878   -5.2853 C   0  0  0  0  0  0
  -13.7947  -10.6024   -5.3247 C   0  0  0  0  0  0
  -14.7975  -10.5702   -4.3808 C   0  0  0  0  0  0
  -14.7645   -9.6039   -3.3874 C   0  0  0  0  0  0
  -15.8254   -9.5448   -2.3517 C   0  0  0  0  0  0
  -15.5473   -9.0471   -1.2515 O   0  0  0  0  0  0
  -16.9502   -9.9902   -2.6160 O   0  0  0  0  0  0
  -13.7300   -8.6484   -3.3420 C   0  0  0  0  0  0
  -12.7113   -8.6886   -4.2949 C   0  0  0  0  0  0
  -11.6312   -7.6326   -4.1944 C   0  0  0  0  0  0
  -12.0275   -6.4486   -4.1109 O   0  0  0  0  0  0
  -10.4555   -7.9488   -4.0996 O   0  0  0  0  0  0
  -10.6628  -10.5284   -6.1222 C   0  0  0  0  0  0
   -9.7761  -10.6925   -7.1476 C   0  0  0  0  0  0
  -10.0011  -10.0974   -8.4096 C   0  0  0  0  0  0
   -9.1432  -10.3212   -9.3741 O   0  0  0  0  0  0
  1  2  1  0  0  0
  2  3  1  0  0  0
  2  7  1  0  0  0
  3  4  1  0  0  0
  4  5  1  0  0  0
  5  6  1  0  0  0
  5 11  1  0  0  0
  6  7  1  0  0  0
  6  8  1  0  0  0
  8  9  1  0  0  0
  9 10  1  0  0  0
  9 11  1  0  0  0
 11 12  1  0  0  0
 11 17  1  0  0  0
 12 13  1  0  0  0
 12 16  1  0  0  0
 13 14  1  0  0  0
 14 15  1  0  0  0
 15 16  1  0  0  0
 17 18  1  0  0  0
 17 34  1  0  0  0
 18 19  1  0  0  0
 19 20  1  0  0  0
 19 32  1  0  0  0
 20 21  1  0  0  0
 20 28  1  0  0  0
 21 22  1  0  0  0
 22 23  1  0  0  0
 23 24  1  0  0  0
 23 27  1  0  0  0
 24 25  1  0  0  0
 24 26  1  0  0  0
 27 28  1  0  0  0
 28 29  1  0  0  0
 29 30  1  0  0  0
 29 31  1  0  0  0
 32 33  1  0  0  0
 33 34  1  0  0  0
 34 35  1  0  0  0
M  END
> <entity_id>
2

> <pdb_auth_chain_name>
B0

$$$$
