B0


 35 39  0  0  0  0            999 V2000
   -4.0832   10.6958  -14.8688 C   0  0  0  0  0  0
   -4.6596    9.4098  -14.3530 C   0  0  0  0  0  0
   -4.2326    8.8509  -13.1269 C   0  0  0  0  0  0
   -4.7895    7.6414  -12.6526 C   0  0  0  0  0  0
   -5.7741    6.9929  -13.4121 C   0  0  0  0  0  0
   -6.2009    7.5798  -14.6345 C   0  0  0  0  0  0
   -5.6622    8.7725  -15.1105 C   0  0  0  0  0  0
   -7.1791    6.7555  -15.1787 N   0  0  0  0  0  0
   -7.3691    5.6902  -14.4262 C   0  0  0  0  0  0
   -8.1880    4.7914  -14.7012 O   0  0  0  0  0  0
   -6.5288    5.7358  -13.1609 C   0  0  0  0  0  0
   -5.5999    4.5759  -12.8931 C   0  0  0  0  0  0
   -5.0608    4.1858  -11.6304 C   0  0  0  0  0  0
   -4.3335    3.0459  -11.8149 N   0  0  0  0  0  0
   -4.4206    2.6492  -13.1606 N   0  0  0  0  0  0
   -5.1864    3.5598  -13.8182 C   0  0  0  0  0  0
   -7.5073    5.8035  -11.9976 C   0  0  0  0  0  0
   -7.7204    7.0028  -11.3270 C   0  0  0  0  0  0
   -8.5681    7.0946  -10.2271 C   0  0  0  0  0  0
   -8.7440    8.3623   -9.5855 C   0  0  0  0  0  0
   -9.9802    8.9585   -9.7336 C   0  0  0  0  0  0
  -10.2252   10.2091   -9.2005 C   0  0  0  0  0  0
   -9.2168   10.8726   -8.5239 C   0  0  0  0  0  0
   -9.4564   12.2207   -7.9583 C   0  0  0  0  0  0
   -8.6267   12.6649   -7.1538 O   0  0  0  0  0  0
  -10.4715   12.8379   -8.3021 O   0  0  0  0  0  0
   -7.9464   10.2914   -8.3674 C   0  0  0  0  0  0
   -7.7052    9.0243   -8.9025 C   0  0  0  0  0  0
   -6.3493    8.3954   -8.6830 C   0  0  0  0  0  0
   -6.2699    7.4392   -7.8730 O   0  0  0  0  0  0
   -5.3774    8.8945   -9.2831 O   0  0  0  0  0  0
   -9.2609    6.0292   -9.7735 C   0  0  0  0  0  0
   -9.1253    4.8218  -10.4086 C   0  0  0  0  0  0
   -8.2553    4.6850  -11.5193 C   0  0  0  0  0  0
   -8.1572    3.5014  -12.1051 O   0  0  0  0  0  0
  1  2  1  0  0  0
  2  3  1  0  0  0
  2  7  1  0  0  0
  3  4  1  0  0  0
  4  5  1  0  0  0
  5  6  1  0  0  0
  5 11  1  0  0  0
  6  7  1  0  0  0
  6  8  1  0  0  0
  8  9  1  0  0  0
  9 10  1  0  0  0
  9 11  1  0  0  0
 11 12  1  0  0  0
 11 17  1  0  0  0
 12 13  1  0  0  0
 12 16  1  0  0  0
 13 14  1  0  0  0
 14 15  1  0  0  0
 15 16  1  0  0  0
 17 18  1  0  0  0
 17 34  1  0  0  0
 18 19  1  0  0  0
 19 20  1  0  0  0
 19 32  1  0  0  0
 20 21  1  0  0  0
 20 28  1  0  0  0
 21 22  1  0  0  0
 22 23  1  0  0  0
 23 24  1  0  0  0
 23 27  1  0  0  0
 24 25  1  0  0  0
 24 26  1  0  0  0
 27 28  1  0  0  0
 28 29  1  0  0  0
 29 30  1  0  0  0
 29 31  1  0  0  0
 32 33  1  0  0  0
 33 34  1  0  0  0
 34 35  1  0  0  0
M  END
> <entity_id>
2

> <pdb_auth_chain_name>
B0

$$$$
