B0


 35 39  0  0  0  0            999 V2000
   -3.5940    1.2876  -16.0714 C   0  0  0  0  0  0
   -2.6957    2.1798  -15.2747 C   0  0  0  0  0  0
   -3.2104    3.3109  -14.6157 C   0  0  0  0  0  0
   -2.3538    4.1660  -13.9052 C   0  0  0  0  0  0
   -0.9859    3.8523  -13.8430 C   0  0  0  0  0  0
   -0.4921    2.7428  -14.4926 C   0  0  0  0  0  0
   -1.3316    1.8907  -15.2164 C   0  0  0  0  0  0
    0.8666    2.6809  -14.2550 N   0  0  0  0  0  0
    1.2621    3.6815  -13.4516 C   0  0  0  0  0  0
    2.4261    3.8725  -13.0275 O   0  0  0  0  0  0
    0.1362    4.5756  -13.2066 C   0  0  0  0  0  0
   -0.1576    4.7531  -11.6704 C   0  0  0  0  0  0
   -0.2804    3.4699  -10.8997 C   0  0  0  0  0  0
    0.0357    3.7210   -9.6072 N   0  0  0  0  0  0
    0.6040    5.0142   -9.5005 N   0  0  0  0  0  0
    0.7026    5.5489  -10.7776 C   0  0  0  0  0  0
    0.3360    5.8597  -14.0319 C   0  0  0  0  0  0
   -0.6740    6.8002  -14.0565 C   0  0  0  0  0  0
   -0.6159    7.8923  -14.9093 C   0  0  0  0  0  0
   -1.7108    8.7929  -14.9113 C   0  0  0  0  0  0
   -1.6970    9.7575  -13.9487 C   0  0  0  0  0  0
   -2.7220   10.6698  -13.8648 C   0  0  0  0  0  0
   -3.7835   10.5858  -14.7562 C   0  0  0  0  0  0
   -4.8795   11.5767  -14.6756 C   0  0  0  0  0  0
   -4.5898   12.7337  -14.3600 O   0  0  0  0  0  0
   -6.0445   11.2025  -14.9307 O   0  0  0  0  0  0
   -3.8300    9.5867  -15.7377 C   0  0  0  0  0  0
   -2.7857    8.6799  -15.8346 C   0  0  0  0  0  0
   -2.8649    7.6234  -16.8943 C   0  0  0  0  0  0
   -3.6440    6.6721  -16.6904 O   0  0  0  0  0  0
   -2.2150    7.7760  -17.9338 O   0  0  0  0  0  0
    0.4373    8.1097  -15.7347 C   0  0  0  0  0  0
    1.4757    7.2214  -15.7508 C   0  0  0  0  0  0
    1.4346    6.0901  -14.9304 C   0  0  0  0  0  0
    2.4416    5.2718  -15.0478 O   0  0  0  0  0  0
  1  2  1  0  0  0
  2  3  1  0  0  0
  2  7  1  0  0  0
  3  4  1  0  0  0
  4  5  1  0  0  0
  5  6  1  0  0  0
  5 11  1  0  0  0
  6  7  1  0  0  0
  6  8  1  0  0  0
  8  9  1  0  0  0
  9 10  1  0  0  0
  9 11  1  0  0  0
 11 12  1  0  0  0
 11 17  1  0  0  0
 12 13  1  0  0  0
 12 16  1  0  0  0
 13 14  1  0  0  0
 14 15  1  0  0  0
 15 16  1  0  0  0
 17 18  1  0  0  0
 17 34  1  0  0  0
 18 19  1  0  0  0
 19 20  1  0  0  0
 19 32  1  0  0  0
 20 21  1  0  0  0
 20 28  1  0  0  0
 21 22  1  0  0  0
 22 23  1  0  0  0
 23 24  1  0  0  0
 23 27  1  0  0  0
 24 25  1  0  0  0
 24 26  1  0  0  0
 27 28  1  0  0  0
 28 29  1  0  0  0
 29 30  1  0  0  0
 29 31  1  0  0  0
 32 33  1  0  0  0
 33 34  1  0  0  0
 34 35  1  0  0  0
M  END
> <entity_id>
2

> <pdb_auth_chain_name>
B0

$$$$
