B0


 35 39  0  0  0  0            999 V2000
   13.4733   -1.8705    8.7360 C   0  0  0  0  0  0
   12.7977   -0.5494    8.4863 C   0  0  0  0  0  0
   11.9998    0.0600    9.4833 C   0  0  0  0  0  0
   11.3539    1.2922    9.2402 C   0  0  0  0  0  0
   11.5379    1.8898    8.0050 C   0  0  0  0  0  0
   12.3250    1.2862    7.0161 C   0  0  0  0  0  0
   12.9590    0.0636    7.2471 C   0  0  0  0  0  0
   12.2608    2.0647    5.8766 N   0  0  0  0  0  0
   11.4941    3.1118    6.0807 C   0  0  0  0  0  0
   11.2202    3.9595    5.2280 O   0  0  0  0  0  0
   11.0364    3.1377    7.4947 C   0  0  0  0  0  0
   11.7136    4.2997    8.1814 C   0  0  0  0  0  0
   12.0907    4.4429    9.5379 C   0  0  0  0  0  0
   12.6710    5.6302    9.7102 N   0  0  0  0  0  0
   12.7224    6.2968    8.5073 N   0  0  0  0  0  0
   12.1531    5.5292    7.5813 C   0  0  0  0  0  0
    9.5086    3.2375    7.6611 C   0  0  0  0  0  0
    9.0061    4.3824    8.2242 C   0  0  0  0  0  0
    7.6642    4.5450    8.4850 C   0  0  0  0  0  0
    7.2738    5.7627    9.1080 C   0  0  0  0  0  0
    6.6088    6.6701    8.3390 C   0  0  0  0  0  0
    6.2261    7.8930    8.8599 C   0  0  0  0  0  0
    6.5314    8.1951   10.1679 C   0  0  0  0  0  0
    6.1294    9.4941   10.7341 C   0  0  0  0  0  0
    6.4992    9.7658   11.8842 O   0  0  0  0  0  0
    5.4398   10.2486   10.0349 O   0  0  0  0  0  0
    7.2398    7.2933   10.9702 C   0  0  0  0  0  0
    7.6271    6.0646   10.4472 C   0  0  0  0  0  0
    8.4089    5.1104   11.3222 C   0  0  0  0  0  0
    9.5310    5.4906   11.6972 O   0  0  0  0  0  0
    7.8931    4.0424   11.6278 O   0  0  0  0  0  0
    6.7434    3.5890    8.1661 C   0  0  0  0  0  0
    7.1553    2.4404    7.5740 C   0  0  0  0  0  0
    8.5442    2.2357    7.3231 C   0  0  0  0  0  0
    8.9081    1.1052    6.8043 O   0  0  0  0  0  0
  1  2  1  0  0  0
  2  3  1  0  0  0
  2  7  1  0  0  0
  3  4  1  0  0  0
  4  5  1  0  0  0
  5  6  1  0  0  0
  5 11  1  0  0  0
  6  7  1  0  0  0
  6  8  1  0  0  0
  8  9  1  0  0  0
  9 10  1  0  0  0
  9 11  1  0  0  0
 11 12  1  0  0  0
 11 17  1  0  0  0
 12 13  1  0  0  0
 12 16  1  0  0  0
 13 14  1  0  0  0
 14 15  1  0  0  0
 15 16  1  0  0  0
 17 18  1  0  0  0
 17 34  1  0  0  0
 18 19  1  0  0  0
 19 20  1  0  0  0
 19 32  1  0  0  0
 20 21  1  0  0  0
 20 28  1  0  0  0
 21 22  1  0  0  0
 22 23  1  0  0  0
 23 24  1  0  0  0
 23 27  1  0  0  0
 24 25  1  0  0  0
 24 26  1  0  0  0
 27 28  1  0  0  0
 28 29  1  0  0  0
 29 30  1  0  0  0
 29 31  1  0  0  0
 32 33  1  0  0  0
 33 34  1  0  0  0
 34 35  1  0  0  0
M  END
> <entity_id>
2

> <pdb_auth_chain_name>
B0

$$$$
