B0


 35 39  0  0  0  0            999 V2000
   -4.3025    7.8291  -11.8787 C   0  0  0  0  0  0
   -4.5918    7.8629  -10.4119 C   0  0  0  0  0  0
   -5.5724    7.0332   -9.8453 C   0  0  0  0  0  0
   -5.8574    7.1049   -8.4675 C   0  0  0  0  0  0
   -5.1312    8.0004   -7.6617 C   0  0  0  0  0  0
   -4.1650    8.8154   -8.2364 C   0  0  0  0  0  0
   -3.8863    8.7591   -9.6080 C   0  0  0  0  0  0
   -3.6053    9.5612   -7.2237 N   0  0  0  0  0  0
   -4.1185    9.2286   -6.0326 C   0  0  0  0  0  0
   -3.7554    9.6911   -4.9275 O   0  0  0  0  0  0
   -5.2356    8.3037   -6.2170 C   0  0  0  0  0  0
   -5.1302    6.9868   -5.3567 C   0  0  0  0  0  0
   -3.8280    6.2381   -5.3834 C   0  0  0  0  0  0
   -3.7238    5.5073   -4.2342 N   0  0  0  0  0  0
   -4.7346    5.9025   -3.3360 N   0  0  0  0  0  0
   -5.4510    6.9437   -3.9090 C   0  0  0  0  0  0
   -6.5341    9.0942   -6.0064 C   0  0  0  0  0  0
   -7.7082    8.5541   -6.4541 C   0  0  0  0  0  0
   -8.8899    9.2807   -6.4340 C   0  0  0  0  0  0
  -10.0564    8.6706   -6.9596 C   0  0  0  0  0  0
  -10.7429    7.8309   -6.1173 C   0  0  0  0  0  0
  -11.8769    7.1883   -6.5530 C   0  0  0  0  0  0
  -12.3140    7.3796   -7.8586 C   0  0  0  0  0  0
  -13.5482    6.7034   -8.3206 C   0  0  0  0  0  0
  -14.4399    6.4867   -7.4847 O   0  0  0  0  0  0
  -13.6467    6.3876   -9.5183 O   0  0  0  0  0  0
  -11.6034    8.2117   -8.7425 C   0  0  0  0  0  0
  -10.4705    8.8801   -8.2986 C   0  0  0  0  0  0
   -9.7236    9.7616   -9.2615 C   0  0  0  0  0  0
   -8.8621    9.2252   -9.9805 O   0  0  0  0  0  0
  -10.0235   10.9600   -9.3035 O   0  0  0  0  0  0
   -8.9568   10.5417   -5.9467 C   0  0  0  0  0  0
   -7.8269   11.1324   -5.4645 C   0  0  0  0  0  0
   -6.6078   10.4353   -5.5073 C   0  0  0  0  0  0
   -5.5752   11.0913   -5.0636 O   0  0  0  0  0  0
  1  2  1  0  0  0
  2  3  1  0  0  0
  2  7  1  0  0  0
  3  4  1  0  0  0
  4  5  1  0  0  0
  5  6  1  0  0  0
  5 11  1  0  0  0
  6  7  1  0  0  0
  6  8  1  0  0  0
  8  9  1  0  0  0
  9 10  1  0  0  0
  9 11  1  0  0  0
 11 12  1  0  0  0
 11 17  1  0  0  0
 12 13  1  0  0  0
 12 16  1  0  0  0
 13 14  1  0  0  0
 14 15  1  0  0  0
 15 16  1  0  0  0
 17 18  1  0  0  0
 17 34  1  0  0  0
 18 19  1  0  0  0
 19 20  1  0  0  0
 19 32  1  0  0  0
 20 21  1  0  0  0
 20 28  1  0  0  0
 21 22  1  0  0  0
 22 23  1  0  0  0
 23 24  1  0  0  0
 23 27  1  0  0  0
 24 25  1  0  0  0
 24 26  1  0  0  0
 27 28  1  0  0  0
 28 29  1  0  0  0
 29 30  1  0  0  0
 29 31  1  0  0  0
 32 33  1  0  0  0
 33 34  1  0  0  0
 34 35  1  0  0  0
M  END
> <entity_id>
2

> <pdb_auth_chain_name>
B0

$$$$
