B0


 35 39  0  0  0  0            999 V2000
    2.4733  -10.0616   -9.2793 C   0  0  0  0  0  0
    1.4727   -9.0824   -9.8133 C   0  0  0  0  0  0
    1.0358   -8.0066   -9.0136 C   0  0  0  0  0  0
    0.1060   -7.0789   -9.5199 C   0  0  0  0  0  0
   -0.3719   -7.2458  -10.8288 C   0  0  0  0  0  0
    0.0633   -8.3084  -11.6253 C   0  0  0  0  0  0
    0.9783   -9.2350  -11.1297 C   0  0  0  0  0  0
   -0.5683   -8.2186  -12.8671 N   0  0  0  0  0  0
   -1.4095   -7.1943  -12.8931 C   0  0  0  0  0  0
   -2.1213   -6.8600  -13.8673 O   0  0  0  0  0  0
   -1.3359   -6.4439  -11.5974 C   0  0  0  0  0  0
   -2.5997   -6.4113  -10.8332 C   0  0  0  0  0  0
   -2.8890   -5.6799   -9.6537 C   0  0  0  0  0  0
   -4.1556   -5.9456   -9.2931 N   0  0  0  0  0  0
   -4.7076   -6.8463  -10.1835 N   0  0  0  0  0  0
   -3.7880   -7.1530  -11.0915 C   0  0  0  0  0  0
   -0.8504   -5.0392  -11.9065 C   0  0  0  0  0  0
    0.4796   -4.8154  -12.2231 C   0  0  0  0  0  0
    0.9705   -3.5117  -12.4542 C   0  0  0  0  0  0
    2.3295   -3.3042  -12.8229 C   0  0  0  0  0  0
    2.6287   -3.4289  -14.1687 C   0  0  0  0  0  0
    3.9245   -3.2495  -14.6222 C   0  0  0  0  0  0
    4.9209   -2.9453  -13.7079 C   0  0  0  0  0  0
    6.3054   -2.7322  -14.1798 C   0  0  0  0  0  0
    6.5226   -1.7560  -14.9083 O   0  0  0  0  0  0
    7.1933   -3.5264  -13.8299 O   0  0  0  0  0  0
    4.6308   -2.8321  -12.3337 C   0  0  0  0  0  0
    3.3158   -2.9951  -11.8912 C   0  0  0  0  0  0
    3.0101   -2.8453  -10.4314 C   0  0  0  0  0  0
    3.0778   -3.8601   -9.7160 O   0  0  0  0  0  0
    2.7330   -1.7083  -10.0082 O   0  0  0  0  0  0
    0.1786   -2.4360  -12.3625 C   0  0  0  0  0  0
   -1.1413   -2.6101  -12.0929 C   0  0  0  0  0  0
   -1.6746   -3.9002  -11.8926 C   0  0  0  0  0  0
   -2.9620   -4.0012  -11.6950 O   0  0  0  0  0  0
  1  2  1  0  0  0
  2  3  1  0  0  0
  2  7  1  0  0  0
  3  4  1  0  0  0
  4  5  1  0  0  0
  5  6  1  0  0  0
  5 11  1  0  0  0
  6  7  1  0  0  0
  6  8  1  0  0  0
  8  9  1  0  0  0
  9 10  1  0  0  0
  9 11  1  0  0  0
 11 12  1  0  0  0
 11 17  1  0  0  0
 12 13  1  0  0  0
 12 16  1  0  0  0
 13 14  1  0  0  0
 14 15  1  0  0  0
 15 16  1  0  0  0
 17 18  1  0  0  0
 17 34  1  0  0  0
 18 19  1  0  0  0
 19 20  1  0  0  0
 19 32  1  0  0  0
 20 21  1  0  0  0
 20 28  1  0  0  0
 21 22  1  0  0  0
 22 23  1  0  0  0
 23 24  1  0  0  0
 23 27  1  0  0  0
 24 25  1  0  0  0
 24 26  1  0  0  0
 27 28  1  0  0  0
 28 29  1  0  0  0
 29 30  1  0  0  0
 29 31  1  0  0  0
 32 33  1  0  0  0
 33 34  1  0  0  0
 34 35  1  0  0  0
M  END
> <entity_id>
2

> <pdb_auth_chain_name>
B0

$$$$
