B0


 35 39  0  0  0  0            999 V2000
    8.6442   14.1956   -1.5803 C   0  0  0  0  0  0
    8.1912   13.4981   -0.3255 C   0  0  0  0  0  0
    7.0982   13.9796    0.4283 C   0  0  0  0  0  0
    6.7190   13.3355    1.6250 C   0  0  0  0  0  0
    7.4179   12.1923    2.0569 C   0  0  0  0  0  0
    8.4905   11.7339    1.2943 C   0  0  0  0  0  0
    8.8903   12.3703    0.1062 C   0  0  0  0  0  0
    8.9986   10.6138    1.9336 N   0  0  0  0  0  0
    8.3023   10.3274    3.0429 C   0  0  0  0  0  0
    8.5187    9.3401    3.8044 O   0  0  0  0  0  0
    7.2689   11.3395    3.2772 C   0  0  0  0  0  0
    5.8695   10.6326    3.3655 C   0  0  0  0  0  0
    5.4995    9.9026    4.6247 C   0  0  0  0  0  0
    4.7879    8.7568    4.2806 N   0  0  0  0  0  0
    4.9199    8.5129    2.8850 N   0  0  0  0  0  0
    5.6254    9.5600    2.3295 C   0  0  0  0  0  0
    7.6171   12.2419    4.4922 C   0  0  0  0  0  0
    6.8102   13.3383    4.7877 C   0  0  0  0  0  0
    7.1575   14.2463    5.7783 C   0  0  0  0  0  0
    6.3030   15.3718    5.9962 C   0  0  0  0  0  0
    5.4647   15.3035    7.0784 C   0  0  0  0  0  0
    4.6166   16.3465    7.3734 C   0  0  0  0  0  0
    4.6030   17.4724    6.5590 C   0  0  0  0  0  0
    3.7049   18.6061    6.8894 C   0  0  0  0  0  0
    3.1150   18.5794    7.9830 O   0  0  0  0  0  0
    3.5920   19.5305    6.0705 O   0  0  0  0  0  0
    5.4371   17.5577    5.4267 C   0  0  0  0  0  0
    6.3063   16.5113    5.1375 C   0  0  0  0  0  0
    7.1852   16.6294    3.9178 C   0  0  0  0  0  0
    6.6070   16.8001    2.8326 O   0  0  0  0  0  0
    8.4055   16.5984    4.0450 O   0  0  0  0  0  0
    8.2857   14.1055    6.5285 C   0  0  0  0  0  0
    9.1172   13.0403    6.3045 C   0  0  0  0  0  0
    8.8125   12.1136    5.2861 C   0  0  0  0  0  0
    9.6813   11.1613    5.1157 O   0  0  0  0  0  0
  1  2  1  0  0  0
  2  3  1  0  0  0
  2  7  1  0  0  0
  3  4  1  0  0  0
  4  5  1  0  0  0
  5  6  1  0  0  0
  5 11  1  0  0  0
  6  7  1  0  0  0
  6  8  1  0  0  0
  8  9  1  0  0  0
  9 10  1  0  0  0
  9 11  1  0  0  0
 11 12  1  0  0  0
 11 17  1  0  0  0
 12 13  1  0  0  0
 12 16  1  0  0  0
 13 14  1  0  0  0
 14 15  1  0  0  0
 15 16  1  0  0  0
 17 18  1  0  0  0
 17 34  1  0  0  0
 18 19  1  0  0  0
 19 20  1  0  0  0
 19 32  1  0  0  0
 20 21  1  0  0  0
 20 28  1  0  0  0
 21 22  1  0  0  0
 22 23  1  0  0  0
 23 24  1  0  0  0
 23 27  1  0  0  0
 24 25  1  0  0  0
 24 26  1  0  0  0
 27 28  1  0  0  0
 28 29  1  0  0  0
 29 30  1  0  0  0
 29 31  1  0  0  0
 32 33  1  0  0  0
 33 34  1  0  0  0
 34 35  1  0  0  0
M  END
> <entity_id>
2

> <pdb_auth_chain_name>
B0

$$$$
