B0


 35 40  0  0  0  0            999 V2000
   -2.3060    6.6849   -9.5203 C   0  0  0  0  0  0
   -1.5325    5.9150  -10.5535 C   0  0  0  0  0  0
   -2.0536    5.6420  -11.8066 C   0  0  0  0  0  0
   -1.3326    4.9165  -12.7692 C   0  0  0  0  0  0
   -0.1047    4.4310  -12.4742 C   0  0  0  0  0  0
    0.3891    4.7516  -11.2030 C   0  0  0  0  0  0
   -0.3038    5.4634  -10.2400 C   0  0  0  0  0  0
    1.5689    4.2231  -11.1251 N   0  0  0  0  0  0
    1.8227    3.6874  -12.1694 C   0  0  0  0  0  0
    2.8763    3.1680  -12.2435 O   0  0  0  0  0  0
    0.8638    3.7413  -13.2763 C   0  0  0  0  0  0
    1.4557    4.8278  -14.1617 C   0  0  0  0  0  0
    1.5445    5.0409  -15.5256 C   0  0  0  0  0  0
    2.2797    6.1383  -15.7472 N   0  0  0  0  0  0
    2.7059    6.6485  -14.5433 N   0  0  0  0  0  0
    2.2181    5.8877  -13.5785 C   0  0  0  0  0  0
    1.1518    2.3373  -13.7043 C   0  0  0  0  0  0
    0.2682    1.2417  -13.5345 C   0  0  0  0  0  0
    0.6400   -0.0458  -13.8251 C   0  0  0  0  0  0
   -0.2490   -1.1795  -13.7190 C   0  0  0  0  0  0
    0.2917   -2.4206  -13.8500 C   0  0  0  0  0  0
   -0.4680   -3.5638  -13.7896 C   0  0  0  0  0  0
   -1.8032   -3.4628  -13.5853 C   0  0  0  0  0  0
   -2.6514   -4.6531  -13.4878 C   0  0  0  0  0  0
   -3.0783   -4.9594  -12.3675 O   0  0  0  0  0  0
   -2.9229   -5.2836  -14.5088 O   0  0  0  0  0  0
   -2.4027   -2.2307  -13.4510 C   0  0  0  0  0  0
   -1.6207   -1.0927  -13.5318 C   0  0  0  0  0  0
   -2.3496    0.1722  -13.4030 C   0  0  0  0  0  0
   -2.6978    0.7424  -14.4442 O   0  0  0  0  0  0
   -2.6862    0.5291  -12.2822 O   0  0  0  0  0  0
    1.8711   -0.2900  -14.2623 C   0  0  0  0  0  0
    2.7727    0.7140  -14.4193 C   0  0  0  0  0  0
    2.4261    2.0234  -14.1448 C   0  0  0  0  0  0
    3.2987    2.9610  -14.3346 O   0  0  0  0  0  0
  1  2  1  0  0  0
  2  3  1  0  0  0
  2  7  1  0  0  0
  3  4  1  0  0  0
  4  5  1  0  0  0
  5  6  1  0  0  0
  5 11  1  0  0  0
  6  7  1  0  0  0
  6  8  1  0  0  0
  6  9  1  0  0  0
  8  9  1  0  0  0
  9 10  1  0  0  0
  9 11  1  0  0  0
 11 12  1  0  0  0
 11 17  1  0  0  0
 12 13  1  0  0  0
 12 16  1  0  0  0
 13 14  1  0  0  0
 14 15  1  0  0  0
 15 16  1  0  0  0
 17 18  1  0  0  0
 17 34  1  0  0  0
 18 19  1  0  0  0
 19 20  1  0  0  0
 19 32  1  0  0  0
 20 21  1  0  0  0
 20 28  1  0  0  0
 21 22  1  0  0  0
 22 23  1  0  0  0
 23 24  1  0  0  0
 23 27  1  0  0  0
 24 25  1  0  0  0
 24 26  1  0  0  0
 27 28  1  0  0  0
 28 29  1  0  0  0
 29 30  1  0  0  0
 29 31  1  0  0  0
 32 33  1  0  0  0
 33 34  1  0  0  0
 34 35  1  0  0  0
M  END
> <entity_id>
2

> <pdb_auth_chain_name>
B0

$$$$
