B0


 35 39  0  0  0  0            999 V2000
   10.7719    3.7695    3.5093 C   0  0  0  0  0  0
   10.7427    4.3994    2.1569 C   0  0  0  0  0  0
    9.8198    3.9709    1.1859 C   0  0  0  0  0  0
    9.8382    4.5295   -0.0914 C   0  0  0  0  0  0
   10.7644    5.5403   -0.3710 C   0  0  0  0  0  0
   11.6875    5.9565    0.5689 C   0  0  0  0  0  0
   11.6675    5.4022    1.8500 C   0  0  0  0  0  0
   12.5213    6.9090   -0.0136 N   0  0  0  0  0  0
   12.1927    7.1213   -1.2877 C   0  0  0  0  0  0
   12.7493    7.9012   -2.0838 O   0  0  0  0  0  0
   11.0456    6.2337   -1.6348 C   0  0  0  0  0  0
    9.9447    7.1988   -2.1028 C   0  0  0  0  0  0
    8.5694    6.9174   -2.4200 C   0  0  0  0  0  0
    7.8433    8.0914   -2.3497 N   0  0  0  0  0  0
    8.5938    9.0366   -1.6567 N   0  0  0  0  0  0
    9.7951    8.5005   -1.3535 C   0  0  0  0  0  0
   11.4933    5.1065   -2.5509 C   0  0  0  0  0  0
   12.7833    4.5655   -2.3552 C   0  0  0  0  0  0
   13.2493    3.4590   -3.0377 C   0  0  0  0  0  0
   14.5934    2.9607   -2.7585 C   0  0  0  0  0  0
   15.4863    3.8928   -2.2771 C   0  0  0  0  0  0
   16.7939    3.5371   -1.9730 C   0  0  0  0  0  0
   17.2106    2.2261   -2.1512 C   0  0  0  0  0  0
   18.5966    1.8133   -1.8431 C   0  0  0  0  0  0
   18.9598    0.6983   -2.1989 O   0  0  0  0  0  0
   19.3325    2.5934   -1.2267 O   0  0  0  0  0  0
   16.3372    1.2875   -2.6090 C   0  0  0  0  0  0
   15.0268    1.6430   -2.9206 C   0  0  0  0  0  0
   14.1465    0.5397   -3.3764 C   0  0  0  0  0  0
   13.4564   -0.0355   -2.5160 O   0  0  0  0  0  0
   14.2089    0.1912   -4.5710 O   0  0  0  0  0  0
   12.4391    2.8531   -3.9508 C   0  0  0  0  0  0
   11.1597    3.3423   -4.1702 C   0  0  0  0  0  0
   10.6793    4.4565   -3.4674 C   0  0  0  0  0  0
    9.4664    4.8814   -3.6837 O   0  0  0  0  0  0
  1  2  1  0  0  0
  2  3  1  0  0  0
  2  7  1  0  0  0
  3  4  1  0  0  0
  4  5  1  0  0  0
  5  6  1  0  0  0
  5 11  1  0  0  0
  6  7  1  0  0  0
  6  8  1  0  0  0
  8  9  1  0  0  0
  9 10  1  0  0  0
  9 11  1  0  0  0
 11 12  1  0  0  0
 11 17  1  0  0  0
 12 13  1  0  0  0
 12 16  1  0  0  0
 13 14  1  0  0  0
 14 15  1  0  0  0
 15 16  1  0  0  0
 17 18  1  0  0  0
 17 34  1  0  0  0
 18 19  1  0  0  0
 19 20  1  0  0  0
 19 32  1  0  0  0
 20 21  1  0  0  0
 20 28  1  0  0  0
 21 22  1  0  0  0
 22 23  1  0  0  0
 23 24  1  0  0  0
 23 27  1  0  0  0
 24 25  1  0  0  0
 24 26  1  0  0  0
 27 28  1  0  0  0
 28 29  1  0  0  0
 29 30  1  0  0  0
 29 31  1  0  0  0
 32 33  1  0  0  0
 33 34  1  0  0  0
 34 35  1  0  0  0
M  END
> <entity_id>
2

> <pdb_auth_chain_name>
B0

$$$$
