B0


 35 39  0  0  0  0            999 V2000
    2.0747  -19.2947   -7.4303 C   0  0  0  0  0  0
    1.5743  -18.1221   -6.6373 C   0  0  0  0  0  0
    0.8204  -17.1001   -7.2571 C   0  0  0  0  0  0
    0.3694  -15.9784   -6.5178 C   0  0  0  0  0  0
    0.6676  -15.9146   -5.1509 C   0  0  0  0  0  0
    1.4279  -16.9236   -4.5390 C   0  0  0  0  0  0
    1.8738  -18.0370   -5.2686 C   0  0  0  0  0  0
    1.5990  -16.5850   -3.1899 N   0  0  0  0  0  0
    0.9698  -15.4338   -2.9048 C   0  0  0  0  0  0
    0.9586  -14.8693   -1.7893 O   0  0  0  0  0  0
    0.3360  -14.8714   -4.1494 C   0  0  0  0  0  0
   -1.1325  -14.7340   -3.9402 C   0  0  0  0  0  0
   -1.8333  -14.6875   -2.6687 C   0  0  0  0  0  0
   -3.1586  -14.7214   -2.8969 N   0  0  0  0  0  0
   -3.3711  -14.8011   -4.2688 N   0  0  0  0  0  0
   -2.1787  -14.8354   -4.8987 C   0  0  0  0  0  0
    1.0802  -13.5955   -4.5429 C   0  0  0  0  0  0
    2.4501  -13.7121   -4.6362 C   0  0  0  0  0  0
    3.2715  -12.6429   -4.9463 C   0  0  0  0  0  0
    4.6865  -12.8878   -4.9798 C   0  0  0  0  0  0
    5.3116  -12.7134   -6.1869 C   0  0  0  0  0  0
    6.6699  -12.9853   -6.3125 C   0  0  0  0  0  0
    7.3870  -13.4398   -5.2110 C   0  0  0  0  0  0
    8.8336  -13.7261   -5.3463 C   0  0  0  0  0  0
    9.2991  -13.9463   -6.4782 O   0  0  0  0  0  0
    9.5291  -13.7371   -4.3071 O   0  0  0  0  0  0
    6.7496  -13.6411   -3.9705 C   0  0  0  0  0  0
    5.3848  -13.3712   -3.8394 C   0  0  0  0  0  0
    4.7426  -13.5632   -2.4782 C   0  0  0  0  0  0
    4.1455  -12.5948   -1.9506 O   0  0  0  0  0  0
    4.8748  -14.6676   -1.9226 O   0  0  0  0  0  0
    2.7553  -11.4031   -5.2007 C   0  0  0  0  0  0
    1.4040  -11.2076   -5.1345 C   0  0  0  0  0  0
    0.5563  -12.3003   -4.7983 C   0  0  0  0  0  0
   -0.7352  -12.0776   -4.7344 O   0  0  0  0  0  0
  1  2  1  0  0  0
  2  3  1  0  0  0
  2  7  1  0  0  0
  3  4  1  0  0  0
  4  5  1  0  0  0
  5  6  1  0  0  0
  5 11  1  0  0  0
  6  7  1  0  0  0
  6  8  1  0  0  0
  8  9  1  0  0  0
  9 10  1  0  0  0
  9 11  1  0  0  0
 11 12  1  0  0  0
 11 17  1  0  0  0
 12 13  1  0  0  0
 12 16  1  0  0  0
 13 14  1  0  0  0
 14 15  1  0  0  0
 15 16  1  0  0  0
 17 18  1  0  0  0
 17 34  1  0  0  0
 18 19  1  0  0  0
 19 20  1  0  0  0
 19 32  1  0  0  0
 20 21  1  0  0  0
 20 28  1  0  0  0
 21 22  1  0  0  0
 22 23  1  0  0  0
 23 24  1  0  0  0
 23 27  1  0  0  0
 24 25  1  0  0  0
 24 26  1  0  0  0
 27 28  1  0  0  0
 28 29  1  0  0  0
 29 30  1  0  0  0
 29 31  1  0  0  0
 32 33  1  0  0  0
 33 34  1  0  0  0
 34 35  1  0  0  0
M  END
> <entity_id>
2

> <pdb_auth_chain_name>
B0

$$$$
