B0


 35 39  0  0  0  0            999 V2000
   -4.5939   15.8735   -4.1464 C   0  0  0  0  0  0
   -4.4658   14.8074   -5.2143 C   0  0  0  0  0  0
   -5.1859   13.6013   -5.1260 C   0  0  0  0  0  0
   -5.0805   12.6138   -6.1347 C   0  0  0  0  0  0
   -4.2358   12.8385   -7.2318 C   0  0  0  0  0  0
   -3.5349   14.0626   -7.2940 C   0  0  0  0  0  0
   -3.6417   15.0436   -6.3037 C   0  0  0  0  0  0
   -2.8222   14.0529   -8.4506 N   0  0  0  0  0  0
   -3.0436   12.9338   -9.1175 C   0  0  0  0  0  0
   -2.5089   12.6711  -10.1930 O   0  0  0  0  0  0
   -3.9574   11.9977   -8.4185 C   0  0  0  0  0  0
   -3.2324   10.7307   -8.4497 C   0  0  0  0  0  0
   -2.2099   10.2464   -7.6362 C   0  0  0  0  0  0
   -1.8874    9.0319   -8.0710 N   0  0  0  0  0  0
   -2.6308    8.7138   -9.1825 N   0  0  0  0  0  0
   -3.4350    9.7260   -9.4416 C   0  0  0  0  0  0
   -5.2901   11.5479   -8.9637 C   0  0  0  0  0  0
   -5.7795   12.0459  -10.1491 C   0  0  0  0  0  0
   -6.9327   11.5198  -10.7149 C   0  0  0  0  0  0
   -7.3960   12.0207  -11.9536 C   0  0  0  0  0  0
   -8.4398   12.9077  -11.8906 C   0  0  0  0  0  0
   -8.9543   13.4552  -13.0417 C   0  0  0  0  0  0
   -8.4120   13.1048  -14.2664 C   0  0  0  0  0  0
   -8.9601   13.6888  -15.5121 C   0  0  0  0  0  0
   -8.7371   13.1023  -16.5739 O   0  0  0  0  0  0
   -9.6364   14.7343  -15.4288 O   0  0  0  0  0  0
   -7.3356   12.1997  -14.3508 C   0  0  0  0  0  0
   -6.8210   11.6475  -13.1900 C   0  0  0  0  0  0
   -5.6738   10.6667  -13.2894 C   0  0  0  0  0  0
   -4.5280   11.1526  -13.4293 O   0  0  0  0  0  0
   -5.9236    9.4672  -13.2577 O   0  0  0  0  0  0
   -7.6522   10.5509  -10.1231 C   0  0  0  0  0  0
   -7.2049   10.0344   -8.9386 C   0  0  0  0  0  0
   -6.0045   10.4889   -8.3591 C   0  0  0  0  0  0
   -5.5642    9.9454   -7.2530 O   0  0  0  0  0  0
  1  2  1  0  0  0
  2  3  1  0  0  0
  2  7  1  0  0  0
  3  4  1  0  0  0
  4  5  1  0  0  0
  5  6  1  0  0  0
  5 11  1  0  0  0
  6  7  1  0  0  0
  6  8  1  0  0  0
  8  9  1  0  0  0
  9 10  1  0  0  0
  9 11  1  0  0  0
 11 12  1  0  0  0
 11 17  1  0  0  0
 12 13  1  0  0  0
 12 16  1  0  0  0
 13 14  1  0  0  0
 14 15  1  0  0  0
 15 16  1  0  0  0
 17 18  1  0  0  0
 17 34  1  0  0  0
 18 19  1  0  0  0
 19 20  1  0  0  0
 19 32  1  0  0  0
 20 21  1  0  0  0
 20 28  1  0  0  0
 21 22  1  0  0  0
 22 23  1  0  0  0
 23 24  1  0  0  0
 23 27  1  0  0  0
 24 25  1  0  0  0
 24 26  1  0  0  0
 27 28  1  0  0  0
 28 29  1  0  0  0
 29 30  1  0  0  0
 29 31  1  0  0  0
 32 33  1  0  0  0
 33 34  1  0  0  0
 34 35  1  0  0  0
M  END
> <entity_id>
2

> <pdb_auth_chain_name>
B0

$$$$
