B0


 35 39  0  0  0  0            999 V2000
   13.1245   -9.3388    0.3522 C   0  0  0  0  0  0
   12.1924   -8.9160    1.4513 C   0  0  0  0  0  0
   12.3597   -7.6767    2.1021 C   0  0  0  0  0  0
   11.5017   -7.3093    3.1597 C   0  0  0  0  0  0
   10.4556   -8.1797    3.5357 C   0  0  0  0  0  0
   10.3052   -9.3906    2.8790 C   0  0  0  0  0  0
   11.1609   -9.7826    1.8432 C   0  0  0  0  0  0
    9.2130  -10.0200    3.4354 N   0  0  0  0  0  0
    8.6286   -9.2647    4.3679 C   0  0  0  0  0  0
    7.5799   -9.5491    4.9898 O   0  0  0  0  0  0
    9.4394   -8.0689    4.6163 C   0  0  0  0  0  0
    8.6215   -6.7172    4.4810 C   0  0  0  0  0  0
    7.7527   -6.1980    5.5655 C   0  0  0  0  0  0
    6.7959   -5.3773    4.9764 N   0  0  0  0  0  0
    6.7723   -5.6230    3.5842 N   0  0  0  0  0  0
    7.7388   -6.5464    3.2910 C   0  0  0  0  0  0
   10.1590   -8.2226    5.9687 C   0  0  0  0  0  0
   11.2045   -7.3694    6.2546 C   0  0  0  0  0  0
   11.9863   -7.5440    7.3934 C   0  0  0  0  0  0
   13.0837   -6.6559    7.5848 C   0  0  0  0  0  0
   12.8006   -5.4571    8.2020 C   0  0  0  0  0  0
   13.8090   -4.5229    8.4073 C   0  0  0  0  0  0
   15.1004   -4.8029    7.9579 C   0  0  0  0  0  0
   16.1781   -3.8083    8.1834 C   0  0  0  0  0  0
   16.0857   -3.0674    9.1733 O   0  0  0  0  0  0
   17.1300   -3.7651    7.3719 O   0  0  0  0  0  0
   15.3948   -6.0116    7.3001 C   0  0  0  0  0  0
   14.3904   -6.9582    7.1112 C   0  0  0  0  0  0
   14.7379   -8.2502    6.4063 C   0  0  0  0  0  0
   14.8119   -8.2167    5.1599 O   0  0  0  0  0  0
   14.9483   -9.2478    7.0917 O   0  0  0  0  0  0
   11.7400   -8.5335    8.2973 C   0  0  0  0  0  0
   10.7011   -9.4003    8.0829 C   0  0  0  0  0  0
    9.9172   -9.2748    6.9187 C   0  0  0  0  0  0
    8.9758  -10.1650    6.7735 O   0  0  0  0  0  0
  1  2  1  0  0  0
  2  3  1  0  0  0
  2  7  1  0  0  0
  3  4  1  0  0  0
  4  5  1  0  0  0
  5  6  1  0  0  0
  5 11  1  0  0  0
  6  7  1  0  0  0
  6  8  1  0  0  0
  8  9  1  0  0  0
  9 10  1  0  0  0
  9 11  1  0  0  0
 11 12  1  0  0  0
 11 17  1  0  0  0
 12 13  1  0  0  0
 12 16  1  0  0  0
 13 14  1  0  0  0
 14 15  1  0  0  0
 15 16  1  0  0  0
 17 18  1  0  0  0
 17 34  1  0  0  0
 18 19  1  0  0  0
 19 20  1  0  0  0
 19 32  1  0  0  0
 20 21  1  0  0  0
 20 28  1  0  0  0
 21 22  1  0  0  0
 22 23  1  0  0  0
 23 24  1  0  0  0
 23 27  1  0  0  0
 24 25  1  0  0  0
 24 26  1  0  0  0
 27 28  1  0  0  0
 28 29  1  0  0  0
 29 30  1  0  0  0
 29 31  1  0  0  0
 32 33  1  0  0  0
 33 34  1  0  0  0
 34 35  1  0  0  0
M  END
> <entity_id>
2

> <pdb_auth_chain_name>
B0

$$$$
