B0


 35 39  0  0  0  0            999 V2000
    1.7592    8.2032  -12.4564 C   0  0  0  0  0  0
    0.8259    7.0283  -12.5042 C   0  0  0  0  0  0
    0.5941    6.2529  -11.3496 C   0  0  0  0  0  0
   -0.2920    5.1538  -11.4005 C   0  0  0  0  0  0
   -0.9461    4.8624  -12.6114 C   0  0  0  0  0  0
   -0.7284    5.6455  -13.7532 C   0  0  0  0  0  0
    0.1549    6.7207  -13.7137 C   0  0  0  0  0  0
   -1.5170    5.1433  -14.7863 N   0  0  0  0  0  0
   -2.2032    4.0696  -14.3876 C   0  0  0  0  0  0
   -2.9982    3.4002  -15.0862 O   0  0  0  0  0  0
   -1.9062    3.7940  -12.9411 C   0  0  0  0  0  0
   -1.2425    2.4916  -12.7057 C   0  0  0  0  0  0
   -0.9169    1.9054  -11.4600 C   0  0  0  0  0  0
   -0.3086    0.7210  -11.6974 N   0  0  0  0  0  0
   -0.2083    0.5247  -13.0709 N   0  0  0  0  0  0
   -0.7467    1.5823  -13.6928 C   0  0  0  0  0  0
   -3.2111    3.9044  -12.1575 C   0  0  0  0  0  0
   -3.7385    5.1631  -11.8563 C   0  0  0  0  0  0
   -4.9026    5.3111  -11.0702 C   0  0  0  0  0  0
   -5.4328    6.6162  -10.7985 C   0  0  0  0  0  0
   -6.3935    7.1074  -11.6745 C   0  0  0  0  0  0
   -6.9469    8.3710  -11.4920 C   0  0  0  0  0  0
   -6.5209    9.1389  -10.4179 C   0  0  0  0  0  0
   -7.1075   10.4850  -10.1840 C   0  0  0  0  0  0
   -8.1463   10.5664   -9.5061 O   0  0  0  0  0  0
   -6.5278   11.4853  -10.6537 O   0  0  0  0  0  0
   -5.5369    8.6645   -9.5265 C   0  0  0  0  0  0
   -5.0007    7.3846   -9.7137 C   0  0  0  0  0  0
   -3.9575    6.8844   -8.7481 C   0  0  0  0  0  0
   -2.8322    7.4078   -8.8201 O   0  0  0  0  0  0
   -4.2912    6.0259   -7.9090 O   0  0  0  0  0  0
   -5.5518    4.2407  -10.5742 C   0  0  0  0  0  0
   -5.0974    2.9851  -10.8804 C   0  0  0  0  0  0
   -3.9451    2.7967  -11.6893 C   0  0  0  0  0  0
   -3.5864    1.5726  -11.9959 O   0  0  0  0  0  0
  1  2  1  0  0  0
  2  3  1  0  0  0
  2  7  1  0  0  0
  3  4  1  0  0  0
  4  5  1  0  0  0
  5  6  1  0  0  0
  5 11  1  0  0  0
  6  7  1  0  0  0
  6  8  1  0  0  0
  8  9  1  0  0  0
  9 10  1  0  0  0
  9 11  1  0  0  0
 11 12  1  0  0  0
 11 17  1  0  0  0
 12 13  1  0  0  0
 12 16  1  0  0  0
 13 14  1  0  0  0
 14 15  1  0  0  0
 15 16  1  0  0  0
 17 18  1  0  0  0
 17 34  1  0  0  0
 18 19  1  0  0  0
 19 20  1  0  0  0
 19 32  1  0  0  0
 20 21  1  0  0  0
 20 28  1  0  0  0
 21 22  1  0  0  0
 22 23  1  0  0  0
 23 24  1  0  0  0
 23 27  1  0  0  0
 24 25  1  0  0  0
 24 26  1  0  0  0
 27 28  1  0  0  0
 28 29  1  0  0  0
 29 30  1  0  0  0
 29 31  1  0  0  0
 32 33  1  0  0  0
 33 34  1  0  0  0
 34 35  1  0  0  0
M  END
> <entity_id>
2

> <pdb_auth_chain_name>
B0

$$$$
