B0


 35 39  0  0  0  0            999 V2000
   -7.3522   15.3661    5.3644 C   0  0  0  0  0  0
   -7.5085   13.8724    5.3457 C   0  0  0  0  0  0
   -7.8864   13.1600    6.4909 C   0  0  0  0  0  0
   -7.9978   11.7573    6.4674 C   0  0  0  0  0  0
   -7.7584   11.0551    5.2853 C   0  0  0  0  0  0
   -7.3747   11.8063    4.1783 C   0  0  0  0  0  0
   -7.2634   13.1955    4.1851 C   0  0  0  0  0  0
   -7.1331   10.9378    3.2199 N   0  0  0  0  0  0
   -7.2977    9.7138    3.6676 C   0  0  0  0  0  0
   -7.1375    8.7722    2.8806 O   0  0  0  0  0  0
   -7.7621    9.5879    5.0434 C   0  0  0  0  0  0
   -8.7379    8.5205    4.7628 C   0  0  0  0  0  0
   -8.4280    7.0936    4.7978 C   0  0  0  0  0  0
   -9.5005    6.4138    4.3968 N   0  0  0  0  0  0
  -10.4953    7.3181    4.0411 N   0  0  0  0  0  0
  -10.0421    8.5596    4.2105 C   0  0  0  0  0  0
   -7.2214    9.1184    6.3815 C   0  0  0  0  0  0
   -8.1515    8.9744    7.4478 C   0  0  0  0  0  0
   -7.7331    8.6314    8.7327 C   0  0  0  0  0  0
   -8.7478    8.5266    9.7761 C   0  0  0  0  0  0
   -9.2456    7.2731   10.0493 C   0  0  0  0  0  0
  -10.2125    7.0819   11.0260 C   0  0  0  0  0  0
  -10.7046    8.1730   11.7307 C   0  0  0  0  0  0
  -11.7456    7.9890   12.7805 C   0  0  0  0  0  0
  -12.1151    6.8371   13.0480 O   0  0  0  0  0  0
  -12.2016    8.9927   13.3393 O   0  0  0  0  0  0
  -10.2417    9.4779   11.4511 C   0  0  0  0  0  0
   -9.2601    9.6661   10.4759 C   0  0  0  0  0  0
   -8.7876   11.0718   10.2155 C   0  0  0  0  0  0
   -9.6131   11.8458    9.7107 O   0  0  0  0  0  0
   -7.6505   11.3797   10.5590 O   0  0  0  0  0  0
   -6.3787    8.4053    8.9854 C   0  0  0  0  0  0
   -5.4303    8.5235    7.9564 C   0  0  0  0  0  0
   -5.8436    8.8940    6.6523 C   0  0  0  0  0  0
   -4.9493    9.0479    5.7093 O   0  0  0  0  0  0
  1  2  1  0  0  0
  2  3  1  0  0  0
  2  7  1  0  0  0
  3  4  1  0  0  0
  4  5  1  0  0  0
  5  6  1  0  0  0
  5 11  1  0  0  0
  6  7  1  0  0  0
  6  8  1  0  0  0
  8  9  1  0  0  0
  9 10  1  0  0  0
  9 11  1  0  0  0
 11 12  1  0  0  0
 11 17  1  0  0  0
 12 13  1  0  0  0
 12 16  1  0  0  0
 13 14  1  0  0  0
 14 15  1  0  0  0
 15 16  1  0  0  0
 17 18  1  0  0  0
 17 34  1  0  0  0
 18 19  1  0  0  0
 19 20  1  0  0  0
 19 32  1  0  0  0
 20 21  1  0  0  0
 20 28  1  0  0  0
 21 22  1  0  0  0
 22 23  1  0  0  0
 23 24  1  0  0  0
 23 27  1  0  0  0
 24 25  1  0  0  0
 24 26  1  0  0  0
 27 28  1  0  0  0
 28 29  1  0  0  0
 29 30  1  0  0  0
 29 31  1  0  0  0
 32 33  1  0  0  0
 33 34  1  0  0  0
 34 35  1  0  0  0
M  END
> <entity_id>
2

> <pdb_auth_chain_name>
B0

$$$$
