B0


 35 39  0  0  0  0            999 V2000
    4.2571    7.5820    6.9292 C   0  0  0  0  0  0
    3.1763    8.0231    7.8845 C   0  0  0  0  0  0
    2.2521    7.0921    8.3547 C   0  0  0  0  0  0
    1.2836    7.4753    9.2856 C   0  0  0  0  0  0
    1.1997    8.8201    9.7058 C   0  0  0  0  0  0
    2.1203    9.7356    9.2366 C   0  0  0  0  0  0
    3.1124    9.3560    8.3275 C   0  0  0  0  0  0
    1.8293   10.9531    9.8167 N   0  0  0  0  0  0
    0.7938   10.8486   10.6404 C   0  0  0  0  0  0
    0.3026   11.8012   11.2797 O   0  0  0  0  0  0
    0.3514    9.4385   10.7379 C   0  0  0  0  0  0
   -1.1714    9.3783   10.6823 C   0  0  0  0  0  0
   -2.0492    9.3539    9.5830 C   0  0  0  0  0  0
   -3.3248    9.2860   10.0190 N   0  0  0  0  0  0
   -3.3182    9.2772   11.4065 N   0  0  0  0  0  0
   -2.0565    9.3447   11.8289 C   0  0  0  0  0  0
    0.7912    8.6671   11.9541 C   0  0  0  0  0  0
    0.4474    7.3282   11.9547 C   0  0  0  0  0  0
    0.8506    6.4966   12.9199 C   0  0  0  0  0  0
    0.4541    5.1128   12.8068 C   0  0  0  0  0  0
    1.3940    4.1913   13.0970 C   0  0  0  0  0  0
    1.1075    2.8437   13.0186 C   0  0  0  0  0  0
   -0.1440    2.4241   12.6211 C   0  0  0  0  0  0
   -0.4929    0.9942   12.5433 C   0  0  0  0  0  0
    0.4161    0.1625   12.5218 O   0  0  0  0  0  0
   -1.7060    0.6871   12.4945 O   0  0  0  0  0  0
   -1.1238    3.3425   12.2911 C   0  0  0  0  0  0
   -0.8388    4.6982   12.3695 C   0  0  0  0  0  0
   -1.9463    5.6277   11.9569 C   0  0  0  0  0  0
   -2.7065    6.0479   12.8379 O   0  0  0  0  0  0
   -2.1060    5.8351   10.7358 O   0  0  0  0  0  0
    1.6252    6.9752   13.9629 C   0  0  0  0  0  0
    1.9999    8.2932   14.0179 C   0  0  0  0  0  0
    1.6093    9.1511   12.9882 C   0  0  0  0  0  0
    1.9847   10.4121   13.0641 O   0  0  0  0  0  0
  1  2  1  0  0  0
  2  3  1  0  0  0
  2  7  1  0  0  0
  3  4  1  0  0  0
  4  5  1  0  0  0
  5  6  1  0  0  0
  5 11  1  0  0  0
  6  7  1  0  0  0
  6  8  1  0  0  0
  8  9  1  0  0  0
  9 10  1  0  0  0
  9 11  1  0  0  0
 11 12  1  0  0  0
 11 17  1  0  0  0
 12 13  1  0  0  0
 12 16  1  0  0  0
 13 14  1  0  0  0
 14 15  1  0  0  0
 15 16  1  0  0  0
 17 18  1  0  0  0
 17 34  1  0  0  0
 18 19  1  0  0  0
 19 20  1  0  0  0
 19 32  1  0  0  0
 20 21  1  0  0  0
 20 28  1  0  0  0
 21 22  1  0  0  0
 22 23  1  0  0  0
 23 24  1  0  0  0
 23 27  1  0  0  0
 24 25  1  0  0  0
 24 26  1  0  0  0
 27 28  1  0  0  0
 28 29  1  0  0  0
 29 30  1  0  0  0
 29 31  1  0  0  0
 32 33  1  0  0  0
 33 34  1  0  0  0
 34 35  1  0  0  0
M  END
> <entity_id>
2

> <pdb_auth_chain_name>
B0

$$$$
