B0


 35 40  0  0  0  0            999 V2000
    3.8534    1.1413  -15.7388 C   0  0  0  0  0  0
    3.2856    0.0085  -14.9250 C   0  0  0  0  0  0
    2.0264    0.0886  -14.3353 C   0  0  0  0  0  0
    1.4890   -0.9745  -13.5785 C   0  0  0  0  0  0
    2.2299   -2.1467  -13.4054 C   0  0  0  0  0  0
    3.4629   -2.1737  -14.0342 C   0  0  0  0  0  0
    4.0077   -1.1314  -14.7773 C   0  0  0  0  0  0
    3.9534   -3.3563  -13.7784 N   0  0  0  0  0  0
    3.1012   -4.0447  -13.0725 C   0  0  0  0  0  0
    3.4173   -5.1702  -12.7349 O   0  0  0  0  0  0
    1.8647   -3.3948  -12.6969 C   0  0  0  0  0  0
    1.7041   -4.1893  -11.5317 C   0  0  0  0  0  0
    1.8986   -3.9355  -10.1645 C   0  0  0  0  0  0
    1.4523   -4.9591   -9.4561 N   0  0  0  0  0  0
    0.9384   -5.9332  -10.3162 N   0  0  0  0  0  0
    1.0642   -5.5002  -11.5352 C   0  0  0  0  0  0
    0.4034   -3.3323  -12.8818 C   0  0  0  0  0  0
   -0.2292   -4.0999  -13.8566 C   0  0  0  0  0  0
   -1.5975   -4.0730  -14.0022 C   0  0  0  0  0  0
   -2.2394   -4.8873  -14.9770 C   0  0  0  0  0  0
   -3.2776   -5.6697  -14.5449 C   0  0  0  0  0  0
   -3.9478   -6.4855  -15.4144 C   0  0  0  0  0  0
   -3.5668   -6.5272  -16.7312 C   0  0  0  0  0  0
   -4.2828   -7.4121  -17.6663 C   0  0  0  0  0  0
   -5.3102   -7.9679  -17.2650 O   0  0  0  0  0  0
   -3.8162   -7.5594  -18.7993 O   0  0  0  0  0  0
   -2.4982   -5.7591  -17.1916 C   0  0  0  0  0  0
   -1.8278   -4.9182  -16.3154 C   0  0  0  0  0  0
   -0.7045   -4.0635  -16.8236 C   0  0  0  0  0  0
    0.3181   -4.6516  -17.1738 O   0  0  0  0  0  0
   -0.8809   -2.8515  -16.8992 O   0  0  0  0  0  0
   -2.3570   -3.2921  -13.2091 C   0  0  0  0  0  0
   -1.7629   -2.5330  -12.2100 C   0  0  0  0  0  0
   -0.3812   -2.5582  -12.0145 C   0  0  0  0  0  0
    0.1804   -1.8298  -11.0594 O   0  0  0  0  0  0
  1  2  1  0  0  0
  2  3  1  0  0  0
  2  7  1  0  0  0
  3  4  1  0  0  0
  4  5  1  0  0  0
  5  6  1  0  0  0
  5 11  1  0  0  0
  6  7  1  0  0  0
  6  8  1  0  0  0
  8  9  1  0  0  0
  9 10  1  0  0  0
  9 11  1  0  0  0
 11 12  1  0  0  0
 11 17  1  0  0  0
 12 13  1  0  0  0
 12 16  1  0  0  0
 12 17  1  0  0  0
 13 14  1  0  0  0
 14 15  1  0  0  0
 15 16  1  0  0  0
 17 18  1  0  0  0
 17 34  1  0  0  0
 18 19  1  0  0  0
 19 20  1  0  0  0
 19 32  1  0  0  0
 20 21  1  0  0  0
 20 28  1  0  0  0
 21 22  1  0  0  0
 22 23  1  0  0  0
 23 24  1  0  0  0
 23 27  1  0  0  0
 24 25  1  0  0  0
 24 26  1  0  0  0
 27 28  1  0  0  0
 28 29  1  0  0  0
 29 30  1  0  0  0
 29 31  1  0  0  0
 32 33  1  0  0  0
 33 34  1  0  0  0
 34 35  1  0  0  0
M  END
> <entity_id>
2

> <pdb_auth_chain_name>
B0

$$$$
