B0


 35 39  0  0  0  0            999 V2000
    1.1798    4.9795   10.5778 C   0  0  0  0  0  0
    2.1492    6.1482   10.4556 C   0  0  0  0  0  0
    1.6899    7.4942   10.5093 C   0  0  0  0  0  0
    2.5922    8.5942   10.3749 C   0  0  0  0  0  0
    3.9534    8.3504   10.1919 C   0  0  0  0  0  0
    4.3892    6.9834   10.1471 C   0  0  0  0  0  0
    3.5027    5.8883   10.2700 C   0  0  0  0  0  0
    5.7533    7.0049    9.9910 N   0  0  0  0  0  0
    6.1948    8.2373    9.9662 C   0  0  0  0  0  0
    7.4130    8.4819    9.9078 O   0  0  0  0  0  0
    5.1122    9.2838   10.0557 C   0  0  0  0  0  0
    5.3126   10.1471   11.2903 C   0  0  0  0  0  0
    5.5913   11.5356   11.3768 C   0  0  0  0  0  0
    5.8605   11.8465   12.6686 N   0  0  0  0  0  0
    5.8136   10.6869   13.4377 N   0  0  0  0  0  0
    5.5085    9.6562   12.6325 C   0  0  0  0  0  0
    5.0749   10.1990    8.8003 C   0  0  0  0  0  0
    3.9106   10.9045    8.3835 C   0  0  0  0  0  0
    3.8967   11.7533    7.2402 C   0  0  0  0  0  0
    2.6986   12.5111    6.8569 C   0  0  0  0  0  0
    1.4754   11.9702    7.2236 C   0  0  0  0  0  0
    0.2780   12.6222    6.9098 C   0  0  0  0  0  0
    0.3082   13.8411    6.2228 C   0  0  0  0  0  0
   -0.9460   14.5511    5.8493 C   0  0  0  0  0  0
   -1.3931   14.3643    4.6988 O   0  0  0  0  0  0
   -1.4684   15.3416    6.6737 O   0  0  0  0  0  0
    1.5173   14.4268    5.8538 C   0  0  0  0  0  0
    2.7236   13.7841    6.1659 C   0  0  0  0  0  0
    3.9658   14.5149    5.7280 C   0  0  0  0  0  0
    4.6097   15.1547    6.5809 O   0  0  0  0  0  0
    4.2368   14.5355    4.5012 O   0  0  0  0  0  0
    5.0157   11.8840    6.4778 C   0  0  0  0  0  0
    6.1784   11.2156    6.8350 C   0  0  0  0  0  0
    6.2227   10.3998    7.9778 C   0  0  0  0  0  0
    7.3669    9.8468    8.2625 O   0  0  0  0  0  0
  1  2  1  0  0  0
  2  3  1  0  0  0
  2  7  1  0  0  0
  3  4  1  0  0  0
  4  5  1  0  0  0
  5  6  1  0  0  0
  5 11  1  0  0  0
  6  7  1  0  0  0
  6  8  1  0  0  0
  8  9  1  0  0  0
  9 10  1  0  0  0
  9 11  1  0  0  0
 11 12  1  0  0  0
 11 17  1  0  0  0
 12 13  1  0  0  0
 12 16  1  0  0  0
 13 14  1  0  0  0
 14 15  1  0  0  0
 15 16  1  0  0  0
 17 18  1  0  0  0
 17 34  1  0  0  0
 18 19  1  0  0  0
 19 20  1  0  0  0
 19 32  1  0  0  0
 20 21  1  0  0  0
 20 28  1  0  0  0
 21 22  1  0  0  0
 22 23  1  0  0  0
 23 24  1  0  0  0
 23 27  1  0  0  0
 24 25  1  0  0  0
 24 26  1  0  0  0
 27 28  1  0  0  0
 28 29  1  0  0  0
 29 30  1  0  0  0
 29 31  1  0  0  0
 32 33  1  0  0  0
 33 34  1  0  0  0
 34 35  1  0  0  0
M  END
> <entity_id>
2

> <pdb_auth_chain_name>
B0

$$$$
