B0


 35 39  0  0  0  0            999 V2000
  -10.5841    4.4899   -5.8109 C   0  0  0  0  0  0
   -9.8069    4.6266   -7.1043 C   0  0  0  0  0  0
   -9.0833    3.5709   -7.6228 C   0  0  0  0  0  0
   -8.3761    3.6785   -8.8355 C   0  0  0  0  0  0
   -8.3854    4.8713   -9.5476 C   0  0  0  0  0  0
   -9.1442    5.8991   -8.9886 C   0  0  0  0  0  0
   -9.8434    5.8037   -7.7855 C   0  0  0  0  0  0
   -9.0854    6.8914   -9.8370 N   0  0  0  0  0  0
   -8.3914    6.5377  -10.8832 C   0  0  0  0  0  0
   -8.2453    7.3407  -11.7657 O   0  0  0  0  0  0
   -7.7816    5.2096  -10.8475 C   0  0  0  0  0  0
   -6.4622    5.6305  -11.3895 C   0  0  0  0  0  0
   -6.3484    6.1394  -12.7936 C   0  0  0  0  0  0
   -5.0648    6.1426  -13.1526 N   0  0  0  0  0  0
   -4.3246    5.5036  -12.1737 N   0  0  0  0  0  0
   -5.1597    5.1069  -11.1802 C   0  0  0  0  0  0
   -7.8954    3.9183  -11.6030 C   0  0  0  0  0  0
   -8.6571    3.7976  -12.7622 C   0  0  0  0  0  0
   -8.6422    2.6229  -13.5141 C   0  0  0  0  0  0
   -9.3579    2.5353  -14.7449 C   0  0  0  0  0  0
  -10.5088    1.8054  -14.7340 C   0  0  0  0  0  0
  -11.2431    1.6447  -15.8839 C   0  0  0  0  0  0
  -10.8116    2.2226  -17.0619 C   0  0  0  0  0  0
  -11.5735    2.0527  -18.3114 C   0  0  0  0  0  0
  -10.9436    1.7555  -19.3333 O   0  0  0  0  0  0
  -12.8031    2.1985  -18.2725 O   0  0  0  0  0  0
   -9.6375    2.9811  -17.1045 C   0  0  0  0  0  0
   -8.8934    3.1451  -15.9490 C   0  0  0  0  0  0
   -7.6368    3.9764  -16.0242 C   0  0  0  0  0  0
   -7.7880    5.2101  -16.0496 O   0  0  0  0  0  0
   -6.5482    3.4126  -16.0969 O   0  0  0  0  0  0
   -7.9404    1.5477  -13.1160 C   0  0  0  0  0  0
   -7.1821    1.6285  -11.9816 C   0  0  0  0  0  0
   -7.1158    2.8067  -11.2316 C   0  0  0  0  0  0
   -6.3392    2.8767  -10.1693 O   0  0  0  0  0  0
  1  2  1  0  0  0
  2  3  1  0  0  0
  2  7  1  0  0  0
  3  4  1  0  0  0
  4  5  1  0  0  0
  5  6  1  0  0  0
  5 11  1  0  0  0
  6  7  1  0  0  0
  6  8  1  0  0  0
  8  9  1  0  0  0
  9 10  1  0  0  0
  9 11  1  0  0  0
 11 12  1  0  0  0
 11 17  1  0  0  0
 12 13  1  0  0  0
 12 16  1  0  0  0
 13 14  1  0  0  0
 14 15  1  0  0  0
 15 16  1  0  0  0
 17 18  1  0  0  0
 17 34  1  0  0  0
 18 19  1  0  0  0
 19 20  1  0  0  0
 19 32  1  0  0  0
 20 21  1  0  0  0
 20 28  1  0  0  0
 21 22  1  0  0  0
 22 23  1  0  0  0
 23 24  1  0  0  0
 23 27  1  0  0  0
 24 25  1  0  0  0
 24 26  1  0  0  0
 27 28  1  0  0  0
 28 29  1  0  0  0
 29 30  1  0  0  0
 29 31  1  0  0  0
 32 33  1  0  0  0
 33 34  1  0  0  0
 34 35  1  0  0  0
M  END
> <entity_id>
2

> <pdb_auth_chain_name>
B0

$$$$
