B0


 35 39  0  0  0  0            999 V2000
   -6.7890    3.7074    9.7895 C   0  0  0  0  0  0
   -6.2133    5.0115   10.2782 C   0  0  0  0  0  0
   -4.8275    5.2082   10.3882 C   0  0  0  0  0  0
   -4.2993    6.4382   10.8379 C   0  0  0  0  0  0
   -5.1770    7.4730   11.1831 C   0  0  0  0  0  0
   -6.5565    7.2683   11.0629 C   0  0  0  0  0  0
   -7.0808    6.0493   10.6119 C   0  0  0  0  0  0
   -7.1934    8.4358   11.4697 N   0  0  0  0  0  0
   -6.3146    9.3362   11.8585 C   0  0  0  0  0  0
   -6.5911   10.4648   12.2791 O   0  0  0  0  0  0
   -4.9137    8.8316   11.7143 C   0  0  0  0  0  0
   -4.2757    8.8428   13.0503 C   0  0  0  0  0  0
   -4.1385    7.7588   13.9559 C   0  0  0  0  0  0
   -3.5161    8.1818   15.0635 N   0  0  0  0  0  0
   -3.2514    9.5328   14.9344 N   0  0  0  0  0  0
   -3.7148    9.9553   13.7435 C   0  0  0  0  0  0
   -4.0921    9.6634   10.7238 C   0  0  0  0  0  0
   -4.7380   10.4261    9.7438 C   0  0  0  0  0  0
   -4.0608   11.1814    8.8201 C   0  0  0  0  0  0
   -4.7743   11.9534    7.8211 C   0  0  0  0  0  0
   -4.1709   13.0902    7.3595 C   0  0  0  0  0  0
   -4.7775   13.8832    6.4009 C   0  0  0  0  0  0
   -6.0156   13.5190    5.9058 C   0  0  0  0  0  0
   -6.7014   14.3158    4.8754 C   0  0  0  0  0  0
   -7.4247   15.2494    5.2374 O   0  0  0  0  0  0
   -6.5608   13.9778    3.6987 O   0  0  0  0  0  0
   -6.6573   12.3952    6.3571 C   0  0  0  0  0  0
   -6.0515   11.6199    7.3193 C   0  0  0  0  0  0
   -6.8356   10.4266    7.7524 C   0  0  0  0  0  0
   -6.5010    9.3350    7.3172 O   0  0  0  0  0  0
   -7.8316   10.6174    8.4577 O   0  0  0  0  0  0
   -2.7132   11.2122    8.8330 C   0  0  0  0  0  0
   -2.0289   10.4896    9.7605 C   0  0  0  0  0  0
   -2.7108    9.7097   10.7097 C   0  0  0  0  0  0
   -2.0348    9.0150   11.5804 O   0  0  0  0  0  0
  1  2  1  0  0  0
  2  3  1  0  0  0
  2  7  1  0  0  0
  3  4  1  0  0  0
  4  5  1  0  0  0
  5  6  1  0  0  0
  5 11  1  0  0  0
  6  7  1  0  0  0
  6  8  1  0  0  0
  8  9  1  0  0  0
  9 10  1  0  0  0
  9 11  1  0  0  0
 11 12  1  0  0  0
 11 17  1  0  0  0
 12 13  1  0  0  0
 12 16  1  0  0  0
 13 14  1  0  0  0
 14 15  1  0  0  0
 15 16  1  0  0  0
 17 18  1  0  0  0
 17 34  1  0  0  0
 18 19  1  0  0  0
 19 20  1  0  0  0
 19 32  1  0  0  0
 20 21  1  0  0  0
 20 28  1  0  0  0
 21 22  1  0  0  0
 22 23  1  0  0  0
 23 24  1  0  0  0
 23 27  1  0  0  0
 24 25  1  0  0  0
 24 26  1  0  0  0
 27 28  1  0  0  0
 28 29  1  0  0  0
 29 30  1  0  0  0
 29 31  1  0  0  0
 32 33  1  0  0  0
 33 34  1  0  0  0
 34 35  1  0  0  0
M  END
> <entity_id>
2

> <pdb_auth_chain_name>
B0

$$$$
