B0


 35 39  0  0  0  0            999 V2000
   -5.3266   -0.4151   10.1252 C   0  0  0  0  0  0
   -4.0259    0.0246   10.7564 C   0  0  0  0  0  0
   -3.8707    1.3263   11.3096 C   0  0  0  0  0  0
   -2.6537    1.7212   11.9204 C   0  0  0  0  0  0
   -1.5856    0.8203   11.9664 C   0  0  0  0  0  0
   -1.7523   -0.4648   11.4118 C   0  0  0  0  0  0
   -2.9692   -0.8785   10.8205 C   0  0  0  0  0  0
   -0.5504   -1.1304   11.5589 N   0  0  0  0  0  0
    0.3626   -0.3376   12.1062 C   0  0  0  0  0  0
    1.5658   -0.6522   12.2752 O   0  0  0  0  0  0
   -0.2012    0.9580   12.5313 C   0  0  0  0  0  0
    0.5853    2.1487   11.9861 C   0  0  0  0  0  0
    1.7210    2.7740   12.5980 C   0  0  0  0  0  0
    2.1324    3.7794   11.8059 N   0  0  0  0  0  0
    1.3634    3.7944   10.6535 N   0  0  0  0  0  0
    0.4635    2.8055   10.7478 C   0  0  0  0  0  0
   -0.2114    1.0209   14.0788 C   0  0  0  0  0  0
   -0.8676    2.0574   14.7263 C   0  0  0  0  0  0
   -0.9155    2.1186   16.1212 C   0  0  0  0  0  0
   -1.5760    3.2178   16.7457 C   0  0  0  0  0  0
   -0.7894    4.3087   17.0409 C   0  0  0  0  0  0
   -1.3304    5.4299   17.6471 C   0  0  0  0  0  0
   -2.6950    5.4423   17.9518 C   0  0  0  0  0  0
   -3.2849    6.6314   18.6227 C   0  0  0  0  0  0
   -4.5080    6.7804   18.5810 O   0  0  0  0  0  0
   -2.5238    7.4082   19.2273 O   0  0  0  0  0  0
   -3.5138    4.3424   17.6483 C   0  0  0  0  0  0
   -2.9575    3.2024   17.0514 C   0  0  0  0  0  0
   -3.8431    2.0152   16.7302 C   0  0  0  0  0  0
   -4.1961    1.2939   17.6736 O   0  0  0  0  0  0
   -4.2075    1.8562   15.5575 O   0  0  0  0  0  0
   -0.3338    1.1755   16.9141 C   0  0  0  0  0  0
    0.3461    0.1422   16.3358 C   0  0  0  0  0  0
    0.4241    0.0546   14.9297 C   0  0  0  0  0  0
    1.0927   -0.9578   14.4828 O   0  0  0  0  0  0
  1  2  1  0  0  0
  2  3  1  0  0  0
  2  7  1  0  0  0
  3  4  1  0  0  0
  4  5  1  0  0  0
  5  6  1  0  0  0
  5 11  1  0  0  0
  6  7  1  0  0  0
  6  8  1  0  0  0
  8  9  1  0  0  0
  9 10  1  0  0  0
  9 11  1  0  0  0
 11 12  1  0  0  0
 11 17  1  0  0  0
 12 13  1  0  0  0
 12 16  1  0  0  0
 13 14  1  0  0  0
 14 15  1  0  0  0
 15 16  1  0  0  0
 17 18  1  0  0  0
 17 34  1  0  0  0
 18 19  1  0  0  0
 19 20  1  0  0  0
 19 32  1  0  0  0
 20 21  1  0  0  0
 20 28  1  0  0  0
 21 22  1  0  0  0
 22 23  1  0  0  0
 23 24  1  0  0  0
 23 27  1  0  0  0
 24 25  1  0  0  0
 24 26  1  0  0  0
 27 28  1  0  0  0
 28 29  1  0  0  0
 29 30  1  0  0  0
 29 31  1  0  0  0
 32 33  1  0  0  0
 33 34  1  0  0  0
 34 35  1  0  0  0
M  END
> <entity_id>
2

> <pdb_auth_chain_name>
B0

$$$$
