B0


 35 39  0  0  0  0            999 V2000
   -2.5741  -14.7110  -11.8679 C   0  0  0  0  0  0
   -1.3764  -14.4762  -10.9938 C   0  0  0  0  0  0
   -0.1420  -14.0435  -11.5374 C   0  0  0  0  0  0
    0.9716  -13.8167  -10.7075 C   0  0  0  0  0  0
    0.8455  -14.0292   -9.3298 C   0  0  0  0  0  0
   -0.3814  -14.4503   -8.8009 C   0  0  0  0  0  0
   -1.5007  -14.6739   -9.6138 C   0  0  0  0  0  0
   -0.2160  -14.5868   -7.4328 N   0  0  0  0  0  0
    1.0370  -14.3106   -7.0722 C   0  0  0  0  0  0
    1.4817  -14.3990   -5.9068 O   0  0  0  0  0  0
    1.8537  -13.8880   -8.2395 C   0  0  0  0  0  0
    3.0261  -14.8385   -8.4156 C   0  0  0  0  0  0
    4.3930  -14.6399   -8.1563 C   0  0  0  0  0  0
    5.0784  -15.7627   -8.4661 N   0  0  0  0  0  0
    4.1787  -16.7212   -8.8674 N   0  0  0  0  0  0
    2.9566  -16.1954   -8.8239 C   0  0  0  0  0  0
    2.3448  -12.4296   -8.1393 C   0  0  0  0  0  0
    3.0913  -11.8943   -9.1754 C   0  0  0  0  0  0
    3.5355  -10.5573   -9.1771 C   0  0  0  0  0  0
    4.3162  -10.1101  -10.2953 C   0  0  0  0  0  0
    5.6563  -10.4528  -10.2741 C   0  0  0  0  0  0
    6.4869  -10.1269  -11.3362 C   0  0  0  0  0  0
    5.9544   -9.4646  -12.4419 C   0  0  0  0  0  0
    6.8251   -9.1414  -13.6036 C   0  0  0  0  0  0
    8.0390   -9.3779  -13.5135 O   0  0  0  0  0  0
    6.3079   -8.6589  -14.6307 O   0  0  0  0  0  0
    4.5920   -9.1198  -12.4832 C   0  0  0  0  0  0
    3.7595   -9.4356  -11.4082 C   0  0  0  0  0  0
    2.3117   -9.0243  -11.5121 C   0  0  0  0  0  0
    1.5285   -9.2256  -10.6100 O   0  0  0  0  0  0
    1.9653   -8.4472  -12.5491 O   0  0  0  0  0  0
    3.2519   -9.7074   -8.1372 C   0  0  0  0  0  0
    2.5351  -10.1721   -7.0541 C   0  0  0  0  0  0
    2.0839  -11.5171   -7.0390 C   0  0  0  0  0  0
    1.4158  -11.8884   -5.9784 O   0  0  0  0  0  0
  1  2  1  0  0  0
  2  3  1  0  0  0
  2  7  1  0  0  0
  3  4  1  0  0  0
  4  5  1  0  0  0
  5  6  1  0  0  0
  5 11  1  0  0  0
  6  7  1  0  0  0
  6  8  1  0  0  0
  8  9  1  0  0  0
  9 10  1  0  0  0
  9 11  1  0  0  0
 11 12  1  0  0  0
 11 17  1  0  0  0
 12 13  1  0  0  0
 12 16  1  0  0  0
 13 14  1  0  0  0
 14 15  1  0  0  0
 15 16  1  0  0  0
 17 18  1  0  0  0
 17 34  1  0  0  0
 18 19  1  0  0  0
 19 20  1  0  0  0
 19 32  1  0  0  0
 20 21  1  0  0  0
 20 28  1  0  0  0
 21 22  1  0  0  0
 22 23  1  0  0  0
 23 24  1  0  0  0
 23 27  1  0  0  0
 24 25  1  0  0  0
 24 26  1  0  0  0
 27 28  1  0  0  0
 28 29  1  0  0  0
 29 30  1  0  0  0
 29 31  1  0  0  0
 32 33  1  0  0  0
 33 34  1  0  0  0
 34 35  1  0  0  0
M  END
> <entity_id>
2

> <pdb_auth_chain_name>
B0

$$$$
