B0


 35 39  0  0  0  0            999 V2000
  -10.2201    2.4066  -11.9849 C   0  0  0  0  0  0
   -9.2413    3.3642  -12.6105 C   0  0  0  0  0  0
   -8.1444    2.8787  -13.3590 C   0  0  0  0  0  0
   -7.2150    3.7680  -13.9222 C   0  0  0  0  0  0
   -7.3992    5.1476  -13.7468 C   0  0  0  0  0  0
   -8.4840    5.6329  -13.0099 C   0  0  0  0  0  0
   -9.4127    4.7456  -12.4308 C   0  0  0  0  0  0
   -8.4104    7.0231  -12.9878 N   0  0  0  0  0  0
   -7.3527    7.4489  -13.6903 C   0  0  0  0  0  0
   -7.0171    8.6433  -13.8553 O   0  0  0  0  0  0
   -6.6070    6.2842  -14.2369 C   0  0  0  0  0  0
   -6.6694    6.3217  -15.7629 C   0  0  0  0  0  0
   -5.7481    6.8094  -16.7165 C   0  0  0  0  0  0
   -6.2532    6.6479  -17.9519 N   0  0  0  0  0  0
   -7.5136    6.0956  -17.8449 N   0  0  0  0  0  0
   -7.7820    5.9166  -16.5612 C   0  0  0  0  0  0
   -5.2021    6.1765  -13.6519 C   0  0  0  0  0  0
   -4.2245    5.4818  -14.3373 C   0  0  0  0  0  0
   -2.9171    5.3477  -13.8485 C   0  0  0  0  0  0
   -1.9589    4.6566  -14.6677 C   0  0  0  0  0  0
   -2.3415    3.4087  -15.1288 C   0  0  0  0  0  0
   -1.5123    2.6891  -15.9883 C   0  0  0  0  0  0
   -0.2970    3.2419  -16.4033 C   0  0  0  0  0  0
    0.5879    2.4913  -17.3431 C   0  0  0  0  0  0
    0.1333    1.4755  -17.9045 O   0  0  0  0  0  0
    1.7406    2.9253  -17.5364 O   0  0  0  0  0  0
    0.0919    4.5106  -15.9613 C   0  0  0  0  0  0
   -0.7378    5.2330  -15.0935 C   0  0  0  0  0  0
   -0.2486    6.5800  -14.6419 C   0  0  0  0  0  0
    0.5277    6.6090  -13.6579 O   0  0  0  0  0  0
   -0.5803    7.5838  -15.2685 O   0  0  0  0  0  0
   -2.5535    5.8765  -12.6490 C   0  0  0  0  0  0
   -3.4876    6.5724  -11.9112 C   0  0  0  0  0  0
   -4.8061    6.7373  -12.3969 C   0  0  0  0  0  0
   -5.6483    7.4305  -11.6499 O   0  0  0  0  0  0
  1  2  1  0  0  0
  2  3  1  0  0  0
  2  7  1  0  0  0
  3  4  1  0  0  0
  4  5  1  0  0  0
  5  6  1  0  0  0
  5 11  1  0  0  0
  6  7  1  0  0  0
  6  8  1  0  0  0
  8  9  1  0  0  0
  9 10  1  0  0  0
  9 11  1  0  0  0
 11 12  1  0  0  0
 11 17  1  0  0  0
 12 13  1  0  0  0
 12 16  1  0  0  0
 13 14  1  0  0  0
 14 15  1  0  0  0
 15 16  1  0  0  0
 17 18  1  0  0  0
 17 34  1  0  0  0
 18 19  1  0  0  0
 19 20  1  0  0  0
 19 32  1  0  0  0
 20 21  1  0  0  0
 20 28  1  0  0  0
 21 22  1  0  0  0
 22 23  1  0  0  0
 23 24  1  0  0  0
 23 27  1  0  0  0
 24 25  1  0  0  0
 24 26  1  0  0  0
 27 28  1  0  0  0
 28 29  1  0  0  0
 29 30  1  0  0  0
 29 31  1  0  0  0
 32 33  1  0  0  0
 33 34  1  0  0  0
 34 35  1  0  0  0
M  END
> <entity_id>
2

> <pdb_auth_chain_name>
B0

$$$$
