B0


 35 39  0  0  0  0            999 V2000
  -11.1754    8.6405   16.9649 C   0  0  0  0  0  0
  -10.0686    9.2273   16.1281 C   0  0  0  0  0  0
   -8.7038    9.0192   16.4504 C   0  0  0  0  0  0
   -7.6858    9.5631   15.6503 C   0  0  0  0  0  0
   -8.0337   10.3241   14.5287 C   0  0  0  0  0  0
   -9.3890   10.5192   14.2212 C   0  0  0  0  0  0
  -10.4163    9.9734   15.0011 C   0  0  0  0  0  0
   -9.4501   11.3072   13.0985 N   0  0  0  0  0  0
   -8.2259   11.6408   12.6858 C   0  0  0  0  0  0
   -7.9956   12.3966   11.7104 O   0  0  0  0  0  0
   -7.1711   11.0190   13.5276 C   0  0  0  0  0  0
   -6.2811   12.0979   14.1213 C   0  0  0  0  0  0
   -6.5405   12.9110   15.2482 C   0  0  0  0  0  0
   -5.5254   13.7646   15.4105 N   0  0  0  0  0  0
   -4.5991   13.5764   14.4009 N   0  0  0  0  0  0
   -5.0557   12.6065   13.6050 C   0  0  0  0  0  0
   -6.3034    9.9939   12.7805 C   0  0  0  0  0  0
   -5.3185    9.3026   13.4728 C   0  0  0  0  0  0
   -4.5245    8.3138   12.8581 C   0  0  0  0  0  0
   -3.5278    7.6689   13.6738 C   0  0  0  0  0  0
   -2.3431    8.3588   13.8440 C   0  0  0  0  0  0
   -1.3550    7.8597   14.6769 C   0  0  0  0  0  0
   -1.5713    6.6565   15.3571 C   0  0  0  0  0  0
   -0.5333    6.1346   16.2815 C   0  0  0  0  0  0
    0.4902    6.8124   16.4732 O   0  0  0  0  0  0
   -0.7357    5.0390   16.8381 O   0  0  0  0  0  0
   -2.7746    5.9488   15.1898 C   0  0  0  0  0  0
   -3.7695    6.4461   14.3469 C   0  0  0  0  0  0
   -5.0324    5.6401   14.1940 C   0  0  0  0  0  0
   -4.8855    4.4194   14.0005 O   0  0  0  0  0  0
   -6.1231    6.1521   14.2939 O   0  0  0  0  0  0
   -4.6806    7.9771   11.5405 C   0  0  0  0  0  0
   -5.6147    8.6478   10.7819 C   0  0  0  0  0  0
   -6.4164    9.6525   11.3775 C   0  0  0  0  0  0
   -7.2862   10.2614   10.6088 O   0  0  0  0  0  0
  1  2  1  0  0  0
  2  3  1  0  0  0
  2  7  1  0  0  0
  3  4  1  0  0  0
  4  5  1  0  0  0
  5  6  1  0  0  0
  5 11  1  0  0  0
  6  7  1  0  0  0
  6  8  1  0  0  0
  8  9  1  0  0  0
  9 10  1  0  0  0
  9 11  1  0  0  0
 11 12  1  0  0  0
 11 17  1  0  0  0
 12 13  1  0  0  0
 12 16  1  0  0  0
 13 14  1  0  0  0
 14 15  1  0  0  0
 15 16  1  0  0  0
 17 18  1  0  0  0
 17 34  1  0  0  0
 18 19  1  0  0  0
 19 20  1  0  0  0
 19 32  1  0  0  0
 20 21  1  0  0  0
 20 28  1  0  0  0
 21 22  1  0  0  0
 22 23  1  0  0  0
 23 24  1  0  0  0
 23 27  1  0  0  0
 24 25  1  0  0  0
 24 26  1  0  0  0
 27 28  1  0  0  0
 28 29  1  0  0  0
 29 30  1  0  0  0
 29 31  1  0  0  0
 32 33  1  0  0  0
 33 34  1  0  0  0
 34 35  1  0  0  0
M  END
> <entity_id>
2

> <pdb_auth_chain_name>
B0

$$$$
