B0


 35 39  0  0  0  0            999 V2000
    3.5557   -6.8852   -7.3324 C   0  0  0  0  0  0
    2.6842   -6.7088   -8.5612 C   0  0  0  0  0  0
    3.2556   -6.4800   -9.8412 C   0  0  0  0  0  0
    2.4444   -6.3019  -10.9948 C   0  0  0  0  0  0
    1.0555   -6.3460  -10.8673 C   0  0  0  0  0  0
    0.4963   -6.5774   -9.5613 C   0  0  0  0  0  0
    1.2894   -6.7485   -8.4141 C   0  0  0  0  0  0
   -0.8706   -6.5807   -9.6984 N   0  0  0  0  0  0
   -1.2034   -6.4023  -10.9595 C   0  0  0  0  0  0
   -2.3910   -6.4240  -11.3116 O   0  0  0  0  0  0
   -0.0164   -6.2432  -11.8993 C   0  0  0  0  0  0
   -0.0139   -7.4118  -12.8869 C   0  0  0  0  0  0
   -0.8988   -7.5748  -14.0108 C   0  0  0  0  0  0
   -0.7306   -8.8167  -14.5228 N   0  0  0  0  0  0
    0.2161   -9.4978  -13.7418 N   0  0  0  0  0  0
    0.6155   -8.6928  -12.7431 C   0  0  0  0  0  0
   -0.0201   -4.9288  -12.7554 C   0  0  0  0  0  0
    1.1701   -4.3257  -13.2882 C   0  0  0  0  0  0
    1.1266   -3.1403  -14.0960 C   0  0  0  0  0  0
    2.3375   -2.5308  -14.6321 C   0  0  0  0  0  0
    2.9111   -3.1242  -15.7561 C   0  0  0  0  0  0
    4.0683   -2.5890  -16.3290 C   0  0  0  0  0  0
    4.6514   -1.4465  -15.7679 C   0  0  0  0  0  0
    5.8734   -0.8461  -16.3548 C   0  0  0  0  0  0
    6.2705    0.2205  -15.8767 O   0  0  0  0  0  0
    6.4377   -1.4100  -17.2971 O   0  0  0  0  0  0
    4.0881   -0.8359  -14.6388 C   0  0  0  0  0  0
    2.9203   -1.3650  -14.0725 C   0  0  0  0  0  0
    2.3737   -0.6450  -12.8673 C   0  0  0  0  0  0
    1.1842   -0.6382  -12.5937 O   0  0  0  0  0  0
    3.1925   -0.0161  -12.1904 O   0  0  0  0  0  0
   -0.0641   -2.5332  -14.3739 C   0  0  0  0  0  0
   -1.2458   -3.0824  -13.8978 C   0  0  0  0  0  0
   -1.2341   -4.2636  -13.1104 C   0  0  0  0  0  0
   -2.3924   -4.7320  -12.7279 O   0  0  0  0  0  0
  1  2  1  0  0  0
  2  3  1  0  0  0
  2  7  1  0  0  0
  3  4  1  0  0  0
  4  5  1  0  0  0
  5  6  1  0  0  0
  5 11  1  0  0  0
  6  7  1  0  0  0
  6  8  1  0  0  0
  8  9  1  0  0  0
  9 10  1  0  0  0
  9 11  1  0  0  0
 11 12  1  0  0  0
 11 17  1  0  0  0
 12 13  1  0  0  0
 12 16  1  0  0  0
 13 14  1  0  0  0
 14 15  1  0  0  0
 15 16  1  0  0  0
 17 18  1  0  0  0
 17 34  1  0  0  0
 18 19  1  0  0  0
 19 20  1  0  0  0
 19 32  1  0  0  0
 20 21  1  0  0  0
 20 28  1  0  0  0
 21 22  1  0  0  0
 22 23  1  0  0  0
 23 24  1  0  0  0
 23 27  1  0  0  0
 24 25  1  0  0  0
 24 26  1  0  0  0
 27 28  1  0  0  0
 28 29  1  0  0  0
 29 30  1  0  0  0
 29 31  1  0  0  0
 32 33  1  0  0  0
 33 34  1  0  0  0
 34 35  1  0  0  0
M  END
> <entity_id>
2

> <pdb_auth_chain_name>
B0

$$$$
