1.C
     RDKit          3D

 35 39  0  0  1  0  0  0  0  0999 V2000
  -21.0470   -0.9020  -47.3650 C   0  0  0  0  0  0  0  0  0  0  0  0
  -19.4600   -2.4680  -46.1020 C   0  0  0  0  0  0  0  0  0  0  0  0
  -20.5350   -1.5560  -46.0670 C   0  0  0  0  0  0  0  0  0  0  0  0
  -19.2820   -4.6660  -42.0640 C   0  0  0  0  0  0  0  0  0  0  0  0
  -18.0820   -5.3010  -41.7160 C   0  0  0  0  0  0  0  0  0  0  0  0
  -18.0700   -6.6710  -41.4600 C   0  0  0  0  0  0  0  0  0  0  0  0
  -19.2390   -7.4310  -41.6060 C   0  0  0  0  0  0  0  0  0  0  0  0
  -20.4420   -6.8120  -41.9200 C   0  0  0  0  0  0  0  0  0  0  0  0
  -20.4620   -5.4340  -42.1730 C   0  0  0  0  0  0  0  0  0  0  0  0
  -17.3610   -1.5570  -42.5450 C   0  0  0  0  0  0  0  0  0  0  0  0
  -18.1130   -2.3830  -41.8050 C   0  0  0  0  0  0  0  0  0  0  0  0
  -17.5410   -2.3340  -40.4540 C   0  0  0  0  0  0  0  0  0  0  0  0
  -16.8130   -7.3820  -41.1280 C   0  0  0  0  0  0  0  0  0  0  0  0
  -15.7400   -7.2380  -42.0100 C   0  0  0  0  0  0  0  0  0  0  0  0
  -14.5410   -7.9020  -41.7570 C   0  0  0  0  0  0  0  0  0  0  0  0
  -14.4320   -8.7500  -40.6540 C   0  0  0  0  0  0  0  0  0  0  0  0
  -15.5100   -8.8970  -39.7640 C   0  0  0  0  0  0  0  0  0  0  0  0
  -16.7200   -8.2380  -40.0110 C   0  0  0  0  0  0  0  0  0  0  0  0
  -17.8100   -8.3260  -38.9630 C   0  0  0  0  0  0  0  0  0  0  0  0
  -19.3360   -3.1380  -42.2710 C   0  0  1  0  0  0  0  0  0  0  0  0
  -13.1500   -9.5020  -40.4090 C   0  0  0  0  0  0  0  0  0  0  0  0
  -21.1800   -1.2550  -44.8530 C   0  0  0  0  0  0  0  0  0  0  0  0
  -20.6990   -1.8770  -43.7060 C   0  0  0  0  0  0  0  0  0  0  0  0
  -19.6390   -2.7760  -43.7400 C   0  0  0  0  0  0  0  0  0  0  0  0
  -18.9790   -3.0790  -44.9350 C   0  0  0  0  0  0  0  0  0  0  0  0
  -20.4950   -2.4430  -41.5430 C   0  0  0  0  0  0  0  0  0  0  0  0
  -16.4140   -1.0650  -41.8050 N   0  0  0  0  0  0  0  0  0  0  0  0
  -16.5470   -1.5560  -40.5540 N   0  0  0  0  0  0  0  0  0  0  0  0
  -21.1850   -1.6730  -42.4030 N   0  0  0  0  0  0  0  0  0  0  0  0
  -20.6930   -2.5410  -40.3490 O   0  0  0  0  0  0  0  0  0  0  0  0
  -21.6730   -4.8340  -42.5170 O   0  0  0  0  0  0  0  0  0  0  0  0
  -18.2190   -7.3130  -38.4110 O   0  0  0  0  0  0  0  0  0  0  0  0
  -13.1770  -10.4910  -39.6910 O   0  0  0  0  0  0  0  0  0  0  0  0
  -12.0170   -9.0670  -40.9550 O   0  0  0  0  0  0  0  0  0  0  0  0
  -18.3050   -9.5050  -38.5960 O   0  0  0  0  0  0  0  0  0  0  0  0
  1  3  1  0
  2  3  2  0
  2 25  1  0
  3 22  1  0
  4  5  2  0
  4  9  1  0
  5  6  1  0
  6  7  2  0
  6 13  1  0
  7  8  1  0
  8  9  2  0
  9 31  1  0
 10 11  2  0
 10 27  1  0
 11 12  1  0
 20 11  1  1
 12 28  2  0
 13 14  2  0
 13 18  1  0
 14 15  1  0
 15 16  2  0
 16 17  1  0
 16 21  1  0
 17 18  2  0
 18 19  1  0
 19 32  1  0
 19 35  2  0
 20  4  1  0
 20 24  1  0
 20 26  1  0
 21 33  1  0
 21 34  2  0
 22 23  2  0
 23 24  1  0
 23 29  1  0
 24 25  2  0
 26 29  1  0
 26 30  2  0
 27 28  1  0
M  END
$$$$
